
*** ChampSim Multicore Out-of-Order Simulator ***

Warmup Instructions: 0
Simulation Instructions: 1035
Number of CPUs: 1
L1D sets: 64
L1D ways: 8
L1D MSHR: 32
L2C sets: 512
L2C ways: 8
L2C MSHR: 32
LLC sets: 2048
LLC ways: 28
LLC MSHR: 32
data LLC sets: 1
data LLC ways: 32768
Off-chip DRAM Size: 4096 MB Channels: 1 Width: 64-bit Data Rate: 1600 MT/s
 DRAM column: 32DRAM RANKS: 8 DRAM BANKS: 8 DRAM_ROWS: 32768 DRAM_ROW_SIZE: 2

CPU 0 runs /home/yashikav/Desktop/Mirage_project/ChampSim_for_mirage_forward_fill_early_with_error_correction_with_LLC_occupancy_mediator/binary_analysis/champsim.trace_sender_23_24479.gz
trace_file is: 0x55b128c99d60 inc: 0x55b128c99e70 fl_llc_occ: 0x55b128c9a090 fl: 0x55b128c99f80 fen: 0x55b128c9a1a0 fen_rd: 0x55b128c9a2b0 arr_access: 0x55b128c9a3c0
seed_number is: 36578
CPU 0 Bimodal branch predictor
LLC: 0x55b126b94bd0
MIRAGE: 1
PRINCE: 1
LLC NUM way: 28 sets per skew: 2048 NUM skew: 2 block size: 64
Configurations set in init_cache_indexing
 mem_size: 3670016  NUM_SKEWING_FUNCTIONS: 2  setShift: 6  setMask: 2048

Warmup complete CPU 0 instructions: 0 cycles: 1 (Simulation time: 0 hr 0 min 0 sec) 

fptr: 0x55b128c99d60 IP is: 401880 fence: 0 rdtsc: 0 instr_id: 0 cpu: 0 cycle[cpu]: 1 branch: 0 taken: 0 i: 0 src_rgst: 54 i: 1 src_rgst: 45
fptr: 0x55b128c99d60 IP is: 401884 fence: 0 rdtsc: 0 instr_id: 1 cpu: 0 cycle[cpu]: 1 branch: 0 taken: 0 i: 0 dest_rgst: 10 i: 0 src_rgst: 26
fptr: 0x55b128c99d60 IP is: 40188b fence: 0 rdtsc: 0 instr_id: 2 cpu: 0 cycle[cpu]: 1 branch: 0 taken: 0 i: 0 dest_rgst: 8 i: 0 src_rgst: 26
fptr: 0x55b128c99d60 IP is: 401892 fence: 0 rdtsc: 0 instr_id: 3 cpu: 0 cycle[cpu]: 1 branch: 0 taken: 0 i: 0 dest_rgst: 6 i: 0 src_rgst: 10
fptr: 0x55b128c99d60 IP is: 401895 fence: 0 rdtsc: 0 instr_id: 4 cpu: 0 cycle[cpu]: 2 branch: 1 taken: 1 i: 0 dest_rgst: 26 i: 0 src_rgst: 8
filled into cache: 2, for cpu: 0 current_core_cycle[0]: 104  packet->instr_id: 0 packet->ip: 4200576
filled into cache: 0, for cpu: 0 current_core_cycle[0]: 105  packet->instr_id: 0 packet->ip: 4200576
found a miss for CPU: 0 packet->address: 14623138 cycle: 122 receiver_checks_for_a_miss 0 instr_id: 0
it is a row buffer miss  open cpu: 0 open row is: 7140 read_rank: 1 read_bank: 2 read_channel: 0 instr_id: 0 full_addr: 935880832
filled into cache: 3, for cpu: 0 current_core_cycle[0]: 291  packet->instr_id: 0 packet->ip: 4200576
filled into cache: 5, for cpu: 0 current_core_cycle[0]: 291  packet->instr_id: 0 packet->ip: 4200576
 Dtaa array Returned way in set: 0 is: 32229 evicting blocks details, instr_id: 0 cpu: 0 full_address: 935880832
filled into cache: 6, for cpu: 0 current_core_cycle[0]: 298  packet->instr_id: 0 packet->ip: 4200576
filled into cache: 7, for cpu: 0 current_core_cycle[0]: 298  packet->instr_id: 0 packet->ip: 4200576
 Retiring instr_id: 0 ip: 4200576 cpu: 0 current_core_cycle[cpu]: 299 fence: 0
 Retiring instr_id: 1 ip: 4200580 cpu: 0 current_core_cycle[cpu]: 299 fence: 0
 Retiring instr_id: 2 ip: 4200587 cpu: 0 current_core_cycle[cpu]: 299 fence: 0
 Retiring instr_id: 3 ip: 4200594 cpu: 0 current_core_cycle[cpu]: 301 fence: 0
 Retiring instr_id: 4 ip: 4200597 cpu: 0 current_core_cycle[cpu]: 301 fence: 0
fptr: 0x55b128c99d60 IP is: 401020 fence: 0 rdtsc: 0 instr_id: 5 cpu: 0 cycle[cpu]: 302 branch: 0 taken: 0 i: 0 src_rgst: 54 i: 1 src_rgst: 45
fptr: 0x55b128c99d60 IP is: 401024 fence: 0 rdtsc: 0 instr_id: 6 cpu: 0 cycle[cpu]: 302 branch: 0 taken: 0 i: 0 dest_rgst: 91 i: 0 src_rgst: 26 src_mem: 402020
fptr: 0x55b128c99d60 IP is: 40102c fence: 0 rdtsc: 0 instr_id: 7 cpu: 0 cycle[cpu]: 302 branch: 0 taken: 0 i: 0 dest_rgst: 13 i: 0 src_rgst: 26
fptr: 0x55b128c99d60 IP is: 401033 fence: 0 rdtsc: 0 instr_id: 8 cpu: 0 cycle[cpu]: 302 branch: 0 taken: 0 i: 0 dest_rgst: 45
fptr: 0x55b128c99d60 IP is: 401038 fence: 0 rdtsc: 0 instr_id: 9 cpu: 0 cycle[cpu]: 303 branch: 0 taken: 0 i: 0 dest_rgst: 55 i: 1 dest_rgst: 25 i: 0 src_rgst: 55
fptr: 0x55b128c99d60 IP is: 40103a fence: 0 rdtsc: 0 instr_id: 10 cpu: 0 cycle[cpu]: 303 branch: 0 taken: 0 i: 0 dest_rgst: 4 i: 0 src_rgst: 13
fptr: 0x55b128c99d60 IP is: 40103e fence: 0 rdtsc: 0 instr_id: 11 cpu: 0 cycle[cpu]: 303 branch: 0 taken: 0 i: 0 dest_rgst: 56
fptr: 0x55b128c99d60 IP is: 401043 fence: 0 rdtsc: 0 instr_id: 12 cpu: 0 cycle[cpu]: 303 branch: 0 taken: 0 dest_mem: 40c2d0 i: 0 src_rgst: 26
fptr: 0x55b128c99d60 IP is: 40104a fence: 0 rdtsc: 0 instr_id: 13 cpu: 0 cycle[cpu]: 304 branch: 0 taken: 0 i: 0 dest_rgst: 64
fptr: 0x55b128c99d60 IP is: 401050 fence: 0 rdtsc: 0 instr_id: 14 cpu: 0 cycle[cpu]: 304 branch: 0 taken: 0 dest_mem: 40c2c0 i: 0 src_rgst: 26 i: 1 src_rgst: 91
fptr: 0x55b128c99d60 IP is: 401057 fence: 0 rdtsc: 0 instr_id: 15 cpu: 0 cycle[cpu]: 304 branch: 0 taken: 0 i: 0 dest_rgst: 61
fptr: 0x55b128c99d60 IP is: 40105d fence: 0 rdtsc: 0 instr_id: 16 cpu: 0 cycle[cpu]: 304 branch: 0 taken: 0 i: 0 dest_rgst: 45 i: 1 dest_rgst: 25 i: 0 src_rgst: 45 i: 1 src_rgst: 47
fptr: 0x55b128c99d60 IP is: 40105f fence: 0 rdtsc: 0 instr_id: 17 cpu: 0 cycle[cpu]: 305 branch: 0 taken: 0 dest_mem: 40c928 i: 0 src_rgst: 26
fptr: 0x55b128c99d60 IP is: 401069 fence: 0 rdtsc: 0 instr_id: 18 cpu: 0 cycle[cpu]: 305 branch: 1 taken: 1 i: 0 dest_rgst: 26 i: 0 src_rgst: 26
found a miss for CPU: 0 packet->address: 14623104 cycle: 320 receiver_checks_for_a_miss 0 instr_id: 5
it is a row buffer miss  open cpu: 0 open row is: 7140 read_rank: 1 read_bank: 0 read_channel: 0 instr_id: 5 full_addr: 935878688
found a miss for CPU: 0 packet->address: 14623105 cycle: 321 receiver_checks_for_a_miss 0 instr_id: 12
it is a row buffer miss  open cpu: 0 open row is: 7140 read_rank: 1 read_bank: 1 read_channel: 0 instr_id: 12 full_addr: 935878723
filled into cache: 3, for cpu: 0 current_core_cycle[0]: 489  packet->instr_id: 5 packet->ip: 4198432
filled into cache: 5, for cpu: 0 current_core_cycle[0]: 489  packet->instr_id: 5 packet->ip: 4198432
 Dtaa array Returned way in set: 0 is: 21437 evicting blocks details, instr_id: 5 cpu: 0 full_address: 935878688
filled into cache: 6, for cpu: 0 current_core_cycle[0]: 496  packet->instr_id: 5 packet->ip: 4198432
filled into cache: 7, for cpu: 0 current_core_cycle[0]: 496  packet->instr_id: 5 packet->ip: 4198432
 Retiring instr_id: 5 ip: 4198432 cpu: 0 current_core_cycle[cpu]: 497 fence: 0
 Dtaa array Returned way in set: 0 is: 7409 evicting blocks details, instr_id: 12 cpu: 0 full_address: 935878723
filled into cache: 6, for cpu: 0 current_core_cycle[0]: 512  packet->instr_id: 12 packet->ip: 4198467
filled into cache: 7, for cpu: 0 current_core_cycle[0]: 512  packet->instr_id: 12 packet->ip: 4198467
filled into cache: 2, for cpu: 0 current_core_cycle[0]: 599  packet->instr_id: 6 packet->ip: 4198436
filled into cache: 5, for cpu: 0 current_core_cycle[0]: 599  packet->instr_id: 12 packet->ip: 4198467
filled into cache: 1, for cpu: 0 current_core_cycle[0]: 600  packet->instr_id: 6 packet->ip: 4198436
filled into cache: 3, for cpu: 0 current_core_cycle[0]: 601  packet->instr_id: 12 packet->ip: 4198467
fptr: 0x55b128c99d60 IP is: 40108a fence: 0 rdtsc: 0 instr_id: 19 cpu: 0 cycle[cpu]: 610 branch: 0 taken: 0 i: 0 dest_rgst: 25 i: 0 src_rgst: 56
fptr: 0x55b128c99d60 IP is: 40108c fence: 0 rdtsc: 0 instr_id: 20 cpu: 0 cycle[cpu]: 610 branch: 0 taken: 0 i: 0 dest_rgst: 54 i: 0 src_rgst: 64
fptr: 0x55b128c99d60 IP is: 40108f fence: 0 rdtsc: 0 instr_id: 21 cpu: 0 cycle[cpu]: 610 branch: 0 taken: 0 i: 0 dest_rgst: 54 i: 0 src_rgst: 56 i: 1 src_rgst: 25
fptr: 0x55b128c99d60 IP is: 401092 fence: 0 rdtsc: 0 instr_id: 22 cpu: 0 cycle[cpu]: 610 branch: 0 taken: 0 i: 0 dest_rgst: 55 i: 0 src_rgst: 61 i: 1 src_rgst: 25
fptr: 0x55b128c99d60 IP is: 401096 fence: 0 rdtsc: 0 instr_id: 23 cpu: 0 cycle[cpu]: 611 branch: 0 taken: 0 i: 0 dest_rgst: 25 i: 0 src_rgst: 4 i: 1 src_rgst: 13
fptr: 0x55b128c99d60 IP is: 401099 fence: 0 rdtsc: 0 instr_id: 24 cpu: 0 cycle[cpu]: 611 branch: 1 taken: 0 i: 0 dest_rgst: 26 i: 0 src_rgst: 26 i: 1 src_rgst: 25
fptr: 0x55b128c99d60 IP is: 40109b fence: 0 rdtsc: 0 instr_id: 25 cpu: 0 cycle[cpu]: 611 branch: 0 taken: 0 i: 0 dest_rgst: 55 i: 0 src_rgst: 3 i: 1 src_rgst: 4
fptr: 0x55b128c99d60 IP is: 40109e fence: 0 rdtsc: 0 instr_id: 26 cpu: 0 cycle[cpu]: 611 branch: 0 taken: 0 i: 0 dest_rgst: 56 i: 0 src_rgst: 54
found a miss for CPU: 0 packet->address: 14623232 cycle: 617 receiver_checks_for_a_miss 0 instr_id: 6
it is a row buffer miss  open cpu: 0 open row is: 7140 read_rank: 2 read_bank: 0 read_channel: 0 instr_id: 6 full_addr: 935886880
fptr: 0x55b128c99d60 IP is: 4010a0 fence: 0 rdtsc: 0 instr_id: 27 cpu: 0 cycle[cpu]: 711 branch: 0 taken: 0 i: 0 dest_rgst: 55 i: 1 dest_rgst: 25 i: 0 src_rgst: 55
fptr: 0x55b128c99d60 IP is: 4010a6 fence: 0 rdtsc: 0 instr_id: 28 cpu: 0 cycle[cpu]: 711 branch: 0 taken: 0 i: 0 dest_rgst: 56 i: 1 dest_rgst: 25 i: 0 src_rgst: 56
fptr: 0x55b128c99d60 IP is: 4010a9 fence: 0 rdtsc: 0 instr_id: 29 cpu: 0 cycle[cpu]: 711 branch: 0 taken: 0 i: 0 dest_rgst: 56 i: 1 dest_rgst: 25 i: 0 src_rgst: 56 i: 1 src_rgst: 54
fptr: 0x55b128c99d60 IP is: 4010ab fence: 0 rdtsc: 0 instr_id: 30 cpu: 0 cycle[cpu]: 711 branch: 0 taken: 0 i: 0 dest_rgst: 56 i: 1 dest_rgst: 25 i: 0 src_rgst: 56
filled into cache: 2, for cpu: 0 current_core_cycle[0]: 711  packet->instr_id: 12 packet->ip: 4198467
fptr: 0x55b128c99d60 IP is: 4010ad fence: 0 rdtsc: 0 instr_id: 31 cpu: 0 cycle[cpu]: 712 branch: 0 taken: 0 i: 0 dest_rgst: 25 i: 0 src_rgst: 55
fptr: 0x55b128c99d60 IP is: 4010b3 fence: 0 rdtsc: 0 instr_id: 32 cpu: 0 cycle[cpu]: 712 branch: 1 taken: 1 i: 0 dest_rgst: 26 i: 0 src_rgst: 26 i: 1 src_rgst: 25
filled into cache: 1, for cpu: 0 current_core_cycle[0]: 712  packet->instr_id: 12 packet->ip: 4198467
found a miss for CPU: 0 packet->address: 14623106 cycle: 727 receiver_checks_for_a_miss 0 instr_id: 19
it is a row buffer hit  open cpu: 0 open row is: 7140 read_rank: 1 read_bank: 2 read_channel: 0 instr_id: 19 full_addr: 935878794
filled into cache: 4, for cpu: 0 current_core_cycle[0]: 786  packet->instr_id: 6 packet->ip: 4198436
filled into cache: 5, for cpu: 0 current_core_cycle[0]: 786  packet->instr_id: 6 packet->ip: 4198436
 Retiring instr_id: 6 ip: 4198436 cpu: 0 current_core_cycle[cpu]: 786 fence: 0
 Retiring instr_id: 7 ip: 4198444 cpu: 0 current_core_cycle[cpu]: 786 fence: 0
 Retiring instr_id: 8 ip: 4198451 cpu: 0 current_core_cycle[cpu]: 786 fence: 0
 Retiring instr_id: 9 ip: 4198456 cpu: 0 current_core_cycle[cpu]: 786 fence: 0
 Retiring instr_id: 10 ip: 4198458 cpu: 0 current_core_cycle[cpu]: 787 fence: 0
 Retiring instr_id: 11 ip: 4198462 cpu: 0 current_core_cycle[cpu]: 787 fence: 0
 Retiring instr_id: 12 ip: 4198467 cpu: 0 current_core_cycle[cpu]: 787 fence: 0
 Retiring instr_id: 13 ip: 4198474 cpu: 0 current_core_cycle[cpu]: 787 fence: 0
 Dtaa array Returned way in set: 0 is: 30876 evicting blocks details, instr_id: 6 cpu: 0 full_address: 935886880
filled into cache: 6, for cpu: 0 current_core_cycle[0]: 793  packet->instr_id: 6 packet->ip: 4198436
filled into cache: 7, for cpu: 0 current_core_cycle[0]: 793  packet->instr_id: 6 packet->ip: 4198436
 Retiring instr_id: 14 ip: 4198480 cpu: 0 current_core_cycle[cpu]: 795 fence: 0
 Retiring instr_id: 15 ip: 4198487 cpu: 0 current_core_cycle[cpu]: 795 fence: 0
 Retiring instr_id: 16 ip: 4198493 cpu: 0 current_core_cycle[cpu]: 795 fence: 0
 Retiring instr_id: 17 ip: 4198495 cpu: 0 current_core_cycle[cpu]: 796 fence: 0
 Retiring instr_id: 18 ip: 4198505 cpu: 0 current_core_cycle[cpu]: 796 fence: 0
filled into cache: 3, for cpu: 0 current_core_cycle[0]: 802  packet->instr_id: 19 packet->ip: 4198538
filled into cache: 5, for cpu: 0 current_core_cycle[0]: 802  packet->instr_id: 19 packet->ip: 4198538
found a miss for CPU: 0 packet->address: 14623371 cycle: 803 receiver_checks_for_a_miss 0 instr_id: 12
it is a row buffer miss  open cpu: 0 open row is: 7140 read_rank: 2 read_bank: 3 read_channel: 0 instr_id: 12 full_addr: 935895760
 Dtaa array Returned way in set: 0 is: 20445 evicting blocks details, instr_id: 19 cpu: 0 full_address: 935878794
filled into cache: 6, for cpu: 0 current_core_cycle[0]: 809  packet->instr_id: 19 packet->ip: 4198538
filled into cache: 7, for cpu: 0 current_core_cycle[0]: 809  packet->instr_id: 19 packet->ip: 4198538
 Retiring instr_id: 19 ip: 4198538 cpu: 0 current_core_cycle[cpu]: 810 fence: 0
 Retiring instr_id: 20 ip: 4198540 cpu: 0 current_core_cycle[cpu]: 810 fence: 0
 Retiring instr_id: 21 ip: 4198543 cpu: 0 current_core_cycle[cpu]: 812 fence: 0
 Retiring instr_id: 22 ip: 4198546 cpu: 0 current_core_cycle[cpu]: 812 fence: 0
 Retiring instr_id: 23 ip: 4198550 cpu: 0 current_core_cycle[cpu]: 812 fence: 0
 Retiring instr_id: 24 ip: 4198553 cpu: 0 current_core_cycle[cpu]: 812 fence: 0
found a miss for CPU: 0 packet->address: 14623396 cycle: 812 receiver_checks_for_a_miss 0 instr_id: 17
it is a row buffer miss  open cpu: 0 open row is: 7140 read_rank: 2 read_bank: 4 read_channel: 0 instr_id: 17 full_addr: 935897384
 Retiring instr_id: 25 ip: 4198555 cpu: 0 current_core_cycle[cpu]: 813 fence: 0
 Retiring instr_id: 26 ip: 4198558 cpu: 0 current_core_cycle[cpu]: 816 fence: 0
 Retiring instr_id: 27 ip: 4198560 cpu: 0 current_core_cycle[cpu]: 816 fence: 0
 Retiring instr_id: 28 ip: 4198566 cpu: 0 current_core_cycle[cpu]: 818 fence: 0
 Retiring instr_id: 29 ip: 4198569 cpu: 0 current_core_cycle[cpu]: 820 fence: 0
fptr: 0x55b128c99d60 IP is: 401070 fence: 0 rdtsc: 0 instr_id: 33 cpu: 0 cycle[cpu]: 821 branch: 0 taken: 0 i: 0 dest_rgst: 55 i: 0 src_rgst: 54
fptr: 0x55b128c99d60 IP is: 401072 fence: 0 rdtsc: 0 instr_id: 34 cpu: 0 cycle[cpu]: 821 branch: 0 taken: 0 i: 0 dest_rgst: 55 i: 1 dest_rgst: 25 i: 0 src_rgst: 55
fptr: 0x55b128c99d60 IP is: 401075 fence: 0 rdtsc: 0 instr_id: 35 cpu: 0 cycle[cpu]: 821 branch: 0 taken: 0 i: 0 dest_rgst: 54 i: 1 dest_rgst: 25 i: 0 src_rgst: 54 i: 1 src_rgst: 55
fptr: 0x55b128c99d60 IP is: 401077 fence: 0 rdtsc: 0 instr_id: 36 cpu: 0 cycle[cpu]: 821 branch: 0 taken: 0 i: 0 dest_rgst: 54 i: 1 dest_rgst: 25 i: 0 src_rgst: 54
fptr: 0x55b128c99d60 IP is: 40107a fence: 0 rdtsc: 0 instr_id: 37 cpu: 0 cycle[cpu]: 822 branch: 0 taken: 0 i: 0 dest_rgst: 54 i: 1 dest_rgst: 25 i: 0 src_rgst: 54 i: 1 src_rgst: 55
fptr: 0x55b128c99d60 IP is: 40107c fence: 0 rdtsc: 0 instr_id: 38 cpu: 0 cycle[cpu]: 822 branch: 0 taken: 0 i: 0 dest_rgst: 54 i: 1 dest_rgst: 25 i: 0 src_rgst: 54
fptr: 0x55b128c99d60 IP is: 40107f fence: 0 rdtsc: 0 instr_id: 39 cpu: 0 cycle[cpu]: 822 branch: 0 taken: 0 dest_mem: 40c2d1 i: 0 src_rgst: 4 i: 1 src_rgst: 33
fptr: 0x55b128c99d60 IP is: 401081 fence: 0 rdtsc: 0 instr_id: 40 cpu: 0 cycle[cpu]: 822 branch: 0 taken: 0 i: 0 dest_rgst: 4 i: 1 dest_rgst: 25 i: 0 src_rgst: 4
 Retiring instr_id: 30 ip: 4198571 cpu: 0 current_core_cycle[cpu]: 822 fence: 0
 Retiring instr_id: 31 ip: 4198573 cpu: 0 current_core_cycle[cpu]: 822 fence: 0
 Retiring instr_id: 32 ip: 4198579 cpu: 0 current_core_cycle[cpu]: 822 fence: 0
fptr: 0x55b128c99d60 IP is: 401085 fence: 0 rdtsc: 0 instr_id: 41 cpu: 0 cycle[cpu]: 823 branch: 0 taken: 0 i: 0 dest_rgst: 55
fptr: 0x55b128c99d60 IP is: 40108a fence: 0 rdtsc: 0 instr_id: 42 cpu: 0 cycle[cpu]: 823 branch: 0 taken: 0 i: 0 dest_rgst: 25 i: 0 src_rgst: 56
fptr: 0x55b128c99d60 IP is: 40108c fence: 0 rdtsc: 0 instr_id: 43 cpu: 0 cycle[cpu]: 823 branch: 0 taken: 0 i: 0 dest_rgst: 54 i: 0 src_rgst: 64
fptr: 0x55b128c99d60 IP is: 40108f fence: 0 rdtsc: 0 instr_id: 44 cpu: 0 cycle[cpu]: 823 branch: 0 taken: 0 i: 0 dest_rgst: 54 i: 0 src_rgst: 56 i: 1 src_rgst: 25
fptr: 0x55b128c99d60 IP is: 401092 fence: 0 rdtsc: 0 instr_id: 45 cpu: 0 cycle[cpu]: 824 branch: 0 taken: 0 i: 0 dest_rgst: 55 i: 0 src_rgst: 61 i: 1 src_rgst: 25
fptr: 0x55b128c99d60 IP is: 401096 fence: 0 rdtsc: 0 instr_id: 46 cpu: 0 cycle[cpu]: 824 branch: 0 taken: 0 i: 0 dest_rgst: 25 i: 0 src_rgst: 4 i: 1 src_rgst: 13
fptr: 0x55b128c99d60 IP is: 401099 fence: 0 rdtsc: 0 instr_id: 47 cpu: 0 cycle[cpu]: 824 branch: 1 taken: 0 i: 0 dest_rgst: 26 i: 0 src_rgst: 26 i: 1 src_rgst: 25
fptr: 0x55b128c99d60 IP is: 40109b fence: 0 rdtsc: 0 instr_id: 48 cpu: 0 cycle[cpu]: 824 branch: 0 taken: 0 i: 0 dest_rgst: 55 i: 0 src_rgst: 3 i: 1 src_rgst: 4
fptr: 0x55b128c99d60 IP is: 40109e fence: 0 rdtsc: 0 instr_id: 49 cpu: 0 cycle[cpu]: 825 branch: 0 taken: 0 i: 0 dest_rgst: 56 i: 0 src_rgst: 54
fptr: 0x55b128c99d60 IP is: 4010a0 fence: 0 rdtsc: 0 instr_id: 50 cpu: 0 cycle[cpu]: 825 branch: 0 taken: 0 i: 0 dest_rgst: 55 i: 1 dest_rgst: 25 i: 0 src_rgst: 55
fptr: 0x55b128c99d60 IP is: 4010a6 fence: 0 rdtsc: 0 instr_id: 51 cpu: 0 cycle[cpu]: 825 branch: 0 taken: 0 i: 0 dest_rgst: 56 i: 1 dest_rgst: 25 i: 0 src_rgst: 56
fptr: 0x55b128c99d60 IP is: 4010a9 fence: 0 rdtsc: 0 instr_id: 52 cpu: 0 cycle[cpu]: 825 branch: 0 taken: 0 i: 0 dest_rgst: 56 i: 1 dest_rgst: 25 i: 0 src_rgst: 56 i: 1 src_rgst: 54
fptr: 0x55b128c99d60 IP is: 4010ab fence: 0 rdtsc: 0 instr_id: 53 cpu: 0 cycle[cpu]: 826 branch: 0 taken: 0 i: 0 dest_rgst: 56 i: 1 dest_rgst: 25 i: 0 src_rgst: 56
fptr: 0x55b128c99d60 IP is: 4010ad fence: 0 rdtsc: 0 instr_id: 54 cpu: 0 cycle[cpu]: 826 branch: 0 taken: 0 i: 0 dest_rgst: 25 i: 0 src_rgst: 55
fptr: 0x55b128c99d60 IP is: 4010b3 fence: 0 rdtsc: 0 instr_id: 55 cpu: 0 cycle[cpu]: 826 branch: 1 taken: 1 i: 0 dest_rgst: 26 i: 0 src_rgst: 26 i: 1 src_rgst: 25
 Retiring instr_id: 33 ip: 4198512 cpu: 0 current_core_cycle[cpu]: 833 fence: 0
 Retiring instr_id: 34 ip: 4198514 cpu: 0 current_core_cycle[cpu]: 835 fence: 0
 Retiring instr_id: 35 ip: 4198517 cpu: 0 current_core_cycle[cpu]: 837 fence: 0
 Retiring instr_id: 36 ip: 4198519 cpu: 0 current_core_cycle[cpu]: 839 fence: 0
 Retiring instr_id: 37 ip: 4198522 cpu: 0 current_core_cycle[cpu]: 841 fence: 0
 Retiring instr_id: 38 ip: 4198524 cpu: 0 current_core_cycle[cpu]: 843 fence: 0
 Retiring instr_id: 39 ip: 4198527 cpu: 0 current_core_cycle[cpu]: 843 fence: 0
 Retiring instr_id: 40 ip: 4198529 cpu: 0 current_core_cycle[cpu]: 843 fence: 0
 Retiring instr_id: 41 ip: 4198533 cpu: 0 current_core_cycle[cpu]: 843 fence: 0
 Retiring instr_id: 42 ip: 4198538 cpu: 0 current_core_cycle[cpu]: 844 fence: 0
 Retiring instr_id: 43 ip: 4198540 cpu: 0 current_core_cycle[cpu]: 844 fence: 0
 Retiring instr_id: 44 ip: 4198543 cpu: 0 current_core_cycle[cpu]: 844 fence: 0
 Retiring instr_id: 45 ip: 4198546 cpu: 0 current_core_cycle[cpu]: 844 fence: 0
 Retiring instr_id: 46 ip: 4198550 cpu: 0 current_core_cycle[cpu]: 845 fence: 0
 Retiring instr_id: 47 ip: 4198553 cpu: 0 current_core_cycle[cpu]: 845 fence: 0
 Retiring instr_id: 48 ip: 4198555 cpu: 0 current_core_cycle[cpu]: 845 fence: 0
 Retiring instr_id: 49 ip: 4198558 cpu: 0 current_core_cycle[cpu]: 845 fence: 0
 Retiring instr_id: 50 ip: 4198560 cpu: 0 current_core_cycle[cpu]: 846 fence: 0
 Retiring instr_id: 51 ip: 4198566 cpu: 0 current_core_cycle[cpu]: 846 fence: 0
 Retiring instr_id: 52 ip: 4198569 cpu: 0 current_core_cycle[cpu]: 847 fence: 0
fptr: 0x55b128c99d60 IP is: 401070 fence: 0 rdtsc: 0 instr_id: 56 cpu: 0 cycle[cpu]: 848 branch: 0 taken: 0 i: 0 dest_rgst: 55 i: 0 src_rgst: 54
fptr: 0x55b128c99d60 IP is: 401072 fence: 0 rdtsc: 0 instr_id: 57 cpu: 0 cycle[cpu]: 848 branch: 0 taken: 0 i: 0 dest_rgst: 55 i: 1 dest_rgst: 25 i: 0 src_rgst: 55
fptr: 0x55b128c99d60 IP is: 401075 fence: 0 rdtsc: 0 instr_id: 58 cpu: 0 cycle[cpu]: 848 branch: 0 taken: 0 i: 0 dest_rgst: 54 i: 1 dest_rgst: 25 i: 0 src_rgst: 54 i: 1 src_rgst: 55
fptr: 0x55b128c99d60 IP is: 401077 fence: 0 rdtsc: 0 instr_id: 59 cpu: 0 cycle[cpu]: 848 branch: 0 taken: 0 i: 0 dest_rgst: 54 i: 1 dest_rgst: 25 i: 0 src_rgst: 54
fptr: 0x55b128c99d60 IP is: 40107a fence: 0 rdtsc: 0 instr_id: 60 cpu: 0 cycle[cpu]: 849 branch: 0 taken: 0 i: 0 dest_rgst: 54 i: 1 dest_rgst: 25 i: 0 src_rgst: 54 i: 1 src_rgst: 55
fptr: 0x55b128c99d60 IP is: 40107c fence: 0 rdtsc: 0 instr_id: 61 cpu: 0 cycle[cpu]: 849 branch: 0 taken: 0 i: 0 dest_rgst: 54 i: 1 dest_rgst: 25 i: 0 src_rgst: 54
fptr: 0x55b128c99d60 IP is: 40107f fence: 0 rdtsc: 0 instr_id: 62 cpu: 0 cycle[cpu]: 849 branch: 0 taken: 0 dest_mem: 40c2d2 i: 0 src_rgst: 4 i: 1 src_rgst: 33
fptr: 0x55b128c99d60 IP is: 401081 fence: 0 rdtsc: 0 instr_id: 63 cpu: 0 cycle[cpu]: 849 branch: 0 taken: 0 i: 0 dest_rgst: 4 i: 1 dest_rgst: 25 i: 0 src_rgst: 4
 Retiring instr_id: 53 ip: 4198571 cpu: 0 current_core_cycle[cpu]: 849 fence: 0
 Retiring instr_id: 54 ip: 4198573 cpu: 0 current_core_cycle[cpu]: 849 fence: 0
 Retiring instr_id: 55 ip: 4198579 cpu: 0 current_core_cycle[cpu]: 849 fence: 0
fptr: 0x55b128c99d60 IP is: 401085 fence: 0 rdtsc: 0 instr_id: 64 cpu: 0 cycle[cpu]: 850 branch: 0 taken: 0 i: 0 dest_rgst: 55
fptr: 0x55b128c99d60 IP is: 40108a fence: 0 rdtsc: 0 instr_id: 65 cpu: 0 cycle[cpu]: 850 branch: 0 taken: 0 i: 0 dest_rgst: 25 i: 0 src_rgst: 56
fptr: 0x55b128c99d60 IP is: 40108c fence: 0 rdtsc: 0 instr_id: 66 cpu: 0 cycle[cpu]: 850 branch: 0 taken: 0 i: 0 dest_rgst: 54 i: 0 src_rgst: 64
fptr: 0x55b128c99d60 IP is: 40108f fence: 0 rdtsc: 0 instr_id: 67 cpu: 0 cycle[cpu]: 850 branch: 0 taken: 0 i: 0 dest_rgst: 54 i: 0 src_rgst: 56 i: 1 src_rgst: 25
fptr: 0x55b128c99d60 IP is: 401092 fence: 0 rdtsc: 0 instr_id: 68 cpu: 0 cycle[cpu]: 851 branch: 0 taken: 0 i: 0 dest_rgst: 55 i: 0 src_rgst: 61 i: 1 src_rgst: 25
fptr: 0x55b128c99d60 IP is: 401096 fence: 0 rdtsc: 0 instr_id: 69 cpu: 0 cycle[cpu]: 851 branch: 0 taken: 0 i: 0 dest_rgst: 25 i: 0 src_rgst: 4 i: 1 src_rgst: 13
fptr: 0x55b128c99d60 IP is: 401099 fence: 0 rdtsc: 0 instr_id: 70 cpu: 0 cycle[cpu]: 851 branch: 1 taken: 0 i: 0 dest_rgst: 26 i: 0 src_rgst: 26 i: 1 src_rgst: 25
fptr: 0x55b128c99d60 IP is: 40109b fence: 0 rdtsc: 0 instr_id: 71 cpu: 0 cycle[cpu]: 851 branch: 0 taken: 0 i: 0 dest_rgst: 55 i: 0 src_rgst: 3 i: 1 src_rgst: 4
fptr: 0x55b128c99d60 IP is: 40109e fence: 0 rdtsc: 0 instr_id: 72 cpu: 0 cycle[cpu]: 852 branch: 0 taken: 0 i: 0 dest_rgst: 56 i: 0 src_rgst: 54
fptr: 0x55b128c99d60 IP is: 4010a0 fence: 0 rdtsc: 0 instr_id: 73 cpu: 0 cycle[cpu]: 852 branch: 0 taken: 0 i: 0 dest_rgst: 55 i: 1 dest_rgst: 25 i: 0 src_rgst: 55
fptr: 0x55b128c99d60 IP is: 4010a6 fence: 0 rdtsc: 0 instr_id: 74 cpu: 0 cycle[cpu]: 852 branch: 0 taken: 0 i: 0 dest_rgst: 56 i: 1 dest_rgst: 25 i: 0 src_rgst: 56
fptr: 0x55b128c99d60 IP is: 4010a9 fence: 0 rdtsc: 0 instr_id: 75 cpu: 0 cycle[cpu]: 852 branch: 0 taken: 0 i: 0 dest_rgst: 56 i: 1 dest_rgst: 25 i: 0 src_rgst: 56 i: 1 src_rgst: 54
fptr: 0x55b128c99d60 IP is: 4010ab fence: 0 rdtsc: 0 instr_id: 76 cpu: 0 cycle[cpu]: 853 branch: 0 taken: 0 i: 0 dest_rgst: 56 i: 1 dest_rgst: 25 i: 0 src_rgst: 56
fptr: 0x55b128c99d60 IP is: 4010ad fence: 0 rdtsc: 0 instr_id: 77 cpu: 0 cycle[cpu]: 853 branch: 0 taken: 0 i: 0 dest_rgst: 25 i: 0 src_rgst: 55
fptr: 0x55b128c99d60 IP is: 4010b3 fence: 0 rdtsc: 0 instr_id: 78 cpu: 0 cycle[cpu]: 853 branch: 1 taken: 1 i: 0 dest_rgst: 26 i: 0 src_rgst: 26 i: 1 src_rgst: 25
fptr: 0x55b128c99d60 IP is: 401070 fence: 0 rdtsc: 0 instr_id: 79 cpu: 0 cycle[cpu]: 854 branch: 0 taken: 0 i: 0 dest_rgst: 55 i: 0 src_rgst: 54
fptr: 0x55b128c99d60 IP is: 401072 fence: 0 rdtsc: 0 instr_id: 80 cpu: 0 cycle[cpu]: 854 branch: 0 taken: 0 i: 0 dest_rgst: 55 i: 1 dest_rgst: 25 i: 0 src_rgst: 55
fptr: 0x55b128c99d60 IP is: 401075 fence: 0 rdtsc: 0 instr_id: 81 cpu: 0 cycle[cpu]: 854 branch: 0 taken: 0 i: 0 dest_rgst: 54 i: 1 dest_rgst: 25 i: 0 src_rgst: 54 i: 1 src_rgst: 55
fptr: 0x55b128c99d60 IP is: 401077 fence: 0 rdtsc: 0 instr_id: 82 cpu: 0 cycle[cpu]: 854 branch: 0 taken: 0 i: 0 dest_rgst: 54 i: 1 dest_rgst: 25 i: 0 src_rgst: 54
fptr: 0x55b128c99d60 IP is: 40107a fence: 0 rdtsc: 0 instr_id: 83 cpu: 0 cycle[cpu]: 855 branch: 0 taken: 0 i: 0 dest_rgst: 54 i: 1 dest_rgst: 25 i: 0 src_rgst: 54 i: 1 src_rgst: 55
fptr: 0x55b128c99d60 IP is: 40107c fence: 0 rdtsc: 0 instr_id: 84 cpu: 0 cycle[cpu]: 855 branch: 0 taken: 0 i: 0 dest_rgst: 54 i: 1 dest_rgst: 25 i: 0 src_rgst: 54
fptr: 0x55b128c99d60 IP is: 40107f fence: 0 rdtsc: 0 instr_id: 85 cpu: 0 cycle[cpu]: 855 branch: 0 taken: 0 dest_mem: 40c2d3 i: 0 src_rgst: 4 i: 1 src_rgst: 33
fptr: 0x55b128c99d60 IP is: 401081 fence: 0 rdtsc: 0 instr_id: 86 cpu: 0 cycle[cpu]: 855 branch: 0 taken: 0 i: 0 dest_rgst: 4 i: 1 dest_rgst: 25 i: 0 src_rgst: 4
fptr: 0x55b128c99d60 IP is: 401085 fence: 0 rdtsc: 0 instr_id: 87 cpu: 0 cycle[cpu]: 856 branch: 0 taken: 0 i: 0 dest_rgst: 55
fptr: 0x55b128c99d60 IP is: 40108a fence: 0 rdtsc: 0 instr_id: 88 cpu: 0 cycle[cpu]: 856 branch: 0 taken: 0 i: 0 dest_rgst: 25 i: 0 src_rgst: 56
fptr: 0x55b128c99d60 IP is: 40108c fence: 0 rdtsc: 0 instr_id: 89 cpu: 0 cycle[cpu]: 856 branch: 0 taken: 0 i: 0 dest_rgst: 54 i: 0 src_rgst: 64
fptr: 0x55b128c99d60 IP is: 40108f fence: 0 rdtsc: 0 instr_id: 90 cpu: 0 cycle[cpu]: 856 branch: 0 taken: 0 i: 0 dest_rgst: 54 i: 0 src_rgst: 56 i: 1 src_rgst: 25
fptr: 0x55b128c99d60 IP is: 401092 fence: 0 rdtsc: 0 instr_id: 91 cpu: 0 cycle[cpu]: 857 branch: 0 taken: 0 i: 0 dest_rgst: 55 i: 0 src_rgst: 61 i: 1 src_rgst: 25
fptr: 0x55b128c99d60 IP is: 401096 fence: 0 rdtsc: 0 instr_id: 92 cpu: 0 cycle[cpu]: 857 branch: 0 taken: 0 i: 0 dest_rgst: 25 i: 0 src_rgst: 4 i: 1 src_rgst: 13
fptr: 0x55b128c99d60 IP is: 401099 fence: 0 rdtsc: 0 instr_id: 93 cpu: 0 cycle[cpu]: 857 branch: 1 taken: 0 i: 0 dest_rgst: 26 i: 0 src_rgst: 26 i: 1 src_rgst: 25
fptr: 0x55b128c99d60 IP is: 40109b fence: 0 rdtsc: 0 instr_id: 94 cpu: 0 cycle[cpu]: 857 branch: 0 taken: 0 i: 0 dest_rgst: 55 i: 0 src_rgst: 3 i: 1 src_rgst: 4
fptr: 0x55b128c99d60 IP is: 40109e fence: 0 rdtsc: 0 instr_id: 95 cpu: 0 cycle[cpu]: 858 branch: 0 taken: 0 i: 0 dest_rgst: 56 i: 0 src_rgst: 54
fptr: 0x55b128c99d60 IP is: 4010a0 fence: 0 rdtsc: 0 instr_id: 96 cpu: 0 cycle[cpu]: 858 branch: 0 taken: 0 i: 0 dest_rgst: 55 i: 1 dest_rgst: 25 i: 0 src_rgst: 55
fptr: 0x55b128c99d60 IP is: 4010a6 fence: 0 rdtsc: 0 instr_id: 97 cpu: 0 cycle[cpu]: 858 branch: 0 taken: 0 i: 0 dest_rgst: 56 i: 1 dest_rgst: 25 i: 0 src_rgst: 56
fptr: 0x55b128c99d60 IP is: 4010a9 fence: 0 rdtsc: 0 instr_id: 98 cpu: 0 cycle[cpu]: 858 branch: 0 taken: 0 i: 0 dest_rgst: 56 i: 1 dest_rgst: 25 i: 0 src_rgst: 56 i: 1 src_rgst: 54
fptr: 0x55b128c99d60 IP is: 4010ab fence: 0 rdtsc: 0 instr_id: 99 cpu: 0 cycle[cpu]: 859 branch: 0 taken: 0 i: 0 dest_rgst: 56 i: 1 dest_rgst: 25 i: 0 src_rgst: 56
fptr: 0x55b128c99d60 IP is: 4010ad fence: 0 rdtsc: 0 instr_id: 100 cpu: 0 cycle[cpu]: 859 branch: 0 taken: 0 i: 0 dest_rgst: 25 i: 0 src_rgst: 55
fptr: 0x55b128c99d60 IP is: 4010b3 fence: 0 rdtsc: 0 instr_id: 101 cpu: 0 cycle[cpu]: 859 branch: 1 taken: 1 i: 0 dest_rgst: 26 i: 0 src_rgst: 26 i: 1 src_rgst: 25
fptr: 0x55b128c99d60 IP is: 401070 fence: 0 rdtsc: 0 instr_id: 102 cpu: 0 cycle[cpu]: 860 branch: 0 taken: 0 i: 0 dest_rgst: 55 i: 0 src_rgst: 54
fptr: 0x55b128c99d60 IP is: 401072 fence: 0 rdtsc: 0 instr_id: 103 cpu: 0 cycle[cpu]: 860 branch: 0 taken: 0 i: 0 dest_rgst: 55 i: 1 dest_rgst: 25 i: 0 src_rgst: 55
fptr: 0x55b128c99d60 IP is: 401075 fence: 0 rdtsc: 0 instr_id: 104 cpu: 0 cycle[cpu]: 860 branch: 0 taken: 0 i: 0 dest_rgst: 54 i: 1 dest_rgst: 25 i: 0 src_rgst: 54 i: 1 src_rgst: 55
fptr: 0x55b128c99d60 IP is: 401077 fence: 0 rdtsc: 0 instr_id: 105 cpu: 0 cycle[cpu]: 860 branch: 0 taken: 0 i: 0 dest_rgst: 54 i: 1 dest_rgst: 25 i: 0 src_rgst: 54
 Retiring instr_id: 56 ip: 4198512 cpu: 0 current_core_cycle[cpu]: 860 fence: 0
fptr: 0x55b128c99d60 IP is: 40107a fence: 0 rdtsc: 0 instr_id: 106 cpu: 0 cycle[cpu]: 861 branch: 0 taken: 0 i: 0 dest_rgst: 54 i: 1 dest_rgst: 25 i: 0 src_rgst: 54 i: 1 src_rgst: 55
fptr: 0x55b128c99d60 IP is: 40107c fence: 0 rdtsc: 0 instr_id: 107 cpu: 0 cycle[cpu]: 861 branch: 0 taken: 0 i: 0 dest_rgst: 54 i: 1 dest_rgst: 25 i: 0 src_rgst: 54
fptr: 0x55b128c99d60 IP is: 40107f fence: 0 rdtsc: 0 instr_id: 108 cpu: 0 cycle[cpu]: 861 branch: 0 taken: 0 dest_mem: 40c2d4 i: 0 src_rgst: 4 i: 1 src_rgst: 33
fptr: 0x55b128c99d60 IP is: 401081 fence: 0 rdtsc: 0 instr_id: 109 cpu: 0 cycle[cpu]: 861 branch: 0 taken: 0 i: 0 dest_rgst: 4 i: 1 dest_rgst: 25 i: 0 src_rgst: 4
fptr: 0x55b128c99d60 IP is: 401085 fence: 0 rdtsc: 0 instr_id: 110 cpu: 0 cycle[cpu]: 862 branch: 0 taken: 0 i: 0 dest_rgst: 55
fptr: 0x55b128c99d60 IP is: 40108a fence: 0 rdtsc: 0 instr_id: 111 cpu: 0 cycle[cpu]: 862 branch: 0 taken: 0 i: 0 dest_rgst: 25 i: 0 src_rgst: 56
fptr: 0x55b128c99d60 IP is: 40108c fence: 0 rdtsc: 0 instr_id: 112 cpu: 0 cycle[cpu]: 862 branch: 0 taken: 0 i: 0 dest_rgst: 54 i: 0 src_rgst: 64
fptr: 0x55b128c99d60 IP is: 40108f fence: 0 rdtsc: 0 instr_id: 113 cpu: 0 cycle[cpu]: 862 branch: 0 taken: 0 i: 0 dest_rgst: 54 i: 0 src_rgst: 56 i: 1 src_rgst: 25
 Retiring instr_id: 57 ip: 4198514 cpu: 0 current_core_cycle[cpu]: 862 fence: 0
fptr: 0x55b128c99d60 IP is: 401092 fence: 0 rdtsc: 0 instr_id: 114 cpu: 0 cycle[cpu]: 863 branch: 0 taken: 0 i: 0 dest_rgst: 55 i: 0 src_rgst: 61 i: 1 src_rgst: 25
fptr: 0x55b128c99d60 IP is: 401096 fence: 0 rdtsc: 0 instr_id: 115 cpu: 0 cycle[cpu]: 863 branch: 0 taken: 0 i: 0 dest_rgst: 25 i: 0 src_rgst: 4 i: 1 src_rgst: 13
fptr: 0x55b128c99d60 IP is: 401099 fence: 0 rdtsc: 0 instr_id: 116 cpu: 0 cycle[cpu]: 863 branch: 1 taken: 0 i: 0 dest_rgst: 26 i: 0 src_rgst: 26 i: 1 src_rgst: 25
fptr: 0x55b128c99d60 IP is: 40109b fence: 0 rdtsc: 0 instr_id: 117 cpu: 0 cycle[cpu]: 863 branch: 0 taken: 0 i: 0 dest_rgst: 55 i: 0 src_rgst: 3 i: 1 src_rgst: 4
fptr: 0x55b128c99d60 IP is: 40109e fence: 0 rdtsc: 0 instr_id: 118 cpu: 0 cycle[cpu]: 864 branch: 0 taken: 0 i: 0 dest_rgst: 56 i: 0 src_rgst: 54
fptr: 0x55b128c99d60 IP is: 4010a0 fence: 0 rdtsc: 0 instr_id: 119 cpu: 0 cycle[cpu]: 864 branch: 0 taken: 0 i: 0 dest_rgst: 55 i: 1 dest_rgst: 25 i: 0 src_rgst: 55
fptr: 0x55b128c99d60 IP is: 4010a6 fence: 0 rdtsc: 0 instr_id: 120 cpu: 0 cycle[cpu]: 864 branch: 0 taken: 0 i: 0 dest_rgst: 56 i: 1 dest_rgst: 25 i: 0 src_rgst: 56
fptr: 0x55b128c99d60 IP is: 4010a9 fence: 0 rdtsc: 0 instr_id: 121 cpu: 0 cycle[cpu]: 864 branch: 0 taken: 0 i: 0 dest_rgst: 56 i: 1 dest_rgst: 25 i: 0 src_rgst: 56 i: 1 src_rgst: 54
 Retiring instr_id: 58 ip: 4198517 cpu: 0 current_core_cycle[cpu]: 864 fence: 0
fptr: 0x55b128c99d60 IP is: 4010ab fence: 0 rdtsc: 0 instr_id: 122 cpu: 0 cycle[cpu]: 865 branch: 0 taken: 0 i: 0 dest_rgst: 56 i: 1 dest_rgst: 25 i: 0 src_rgst: 56
fptr: 0x55b128c99d60 IP is: 4010ad fence: 0 rdtsc: 0 instr_id: 123 cpu: 0 cycle[cpu]: 865 branch: 0 taken: 0 i: 0 dest_rgst: 25 i: 0 src_rgst: 55
fptr: 0x55b128c99d60 IP is: 4010b3 fence: 0 rdtsc: 0 instr_id: 124 cpu: 0 cycle[cpu]: 865 branch: 1 taken: 1 i: 0 dest_rgst: 26 i: 0 src_rgst: 26 i: 1 src_rgst: 25
fptr: 0x55b128c99d60 IP is: 401070 fence: 0 rdtsc: 0 instr_id: 125 cpu: 0 cycle[cpu]: 866 branch: 0 taken: 0 i: 0 dest_rgst: 55 i: 0 src_rgst: 54
fptr: 0x55b128c99d60 IP is: 401072 fence: 0 rdtsc: 0 instr_id: 126 cpu: 0 cycle[cpu]: 866 branch: 0 taken: 0 i: 0 dest_rgst: 55 i: 1 dest_rgst: 25 i: 0 src_rgst: 55
fptr: 0x55b128c99d60 IP is: 401075 fence: 0 rdtsc: 0 instr_id: 127 cpu: 0 cycle[cpu]: 866 branch: 0 taken: 0 i: 0 dest_rgst: 54 i: 1 dest_rgst: 25 i: 0 src_rgst: 54 i: 1 src_rgst: 55
fptr: 0x55b128c99d60 IP is: 401077 fence: 0 rdtsc: 0 instr_id: 128 cpu: 0 cycle[cpu]: 866 branch: 0 taken: 0 i: 0 dest_rgst: 54 i: 1 dest_rgst: 25 i: 0 src_rgst: 54
 Retiring instr_id: 59 ip: 4198519 cpu: 0 current_core_cycle[cpu]: 866 fence: 0
fptr: 0x55b128c99d60 IP is: 40107a fence: 0 rdtsc: 0 instr_id: 129 cpu: 0 cycle[cpu]: 867 branch: 0 taken: 0 i: 0 dest_rgst: 54 i: 1 dest_rgst: 25 i: 0 src_rgst: 54 i: 1 src_rgst: 55
fptr: 0x55b128c99d60 IP is: 40107c fence: 0 rdtsc: 0 instr_id: 130 cpu: 0 cycle[cpu]: 867 branch: 0 taken: 0 i: 0 dest_rgst: 54 i: 1 dest_rgst: 25 i: 0 src_rgst: 54
fptr: 0x55b128c99d60 IP is: 40107f fence: 0 rdtsc: 0 instr_id: 131 cpu: 0 cycle[cpu]: 867 branch: 0 taken: 0 dest_mem: 40c2d5 i: 0 src_rgst: 4 i: 1 src_rgst: 33
fptr: 0x55b128c99d60 IP is: 401081 fence: 0 rdtsc: 0 instr_id: 132 cpu: 0 cycle[cpu]: 867 branch: 0 taken: 0 i: 0 dest_rgst: 4 i: 1 dest_rgst: 25 i: 0 src_rgst: 4
fptr: 0x55b128c99d60 IP is: 401085 fence: 0 rdtsc: 0 instr_id: 133 cpu: 0 cycle[cpu]: 868 branch: 0 taken: 0 i: 0 dest_rgst: 55
fptr: 0x55b128c99d60 IP is: 40108a fence: 0 rdtsc: 0 instr_id: 134 cpu: 0 cycle[cpu]: 868 branch: 0 taken: 0 i: 0 dest_rgst: 25 i: 0 src_rgst: 56
fptr: 0x55b128c99d60 IP is: 40108c fence: 0 rdtsc: 0 instr_id: 135 cpu: 0 cycle[cpu]: 868 branch: 0 taken: 0 i: 0 dest_rgst: 54 i: 0 src_rgst: 64
fptr: 0x55b128c99d60 IP is: 40108f fence: 0 rdtsc: 0 instr_id: 136 cpu: 0 cycle[cpu]: 868 branch: 0 taken: 0 i: 0 dest_rgst: 54 i: 0 src_rgst: 56 i: 1 src_rgst: 25
 Retiring instr_id: 60 ip: 4198522 cpu: 0 current_core_cycle[cpu]: 868 fence: 0
fptr: 0x55b128c99d60 IP is: 401092 fence: 0 rdtsc: 0 instr_id: 137 cpu: 0 cycle[cpu]: 869 branch: 0 taken: 0 i: 0 dest_rgst: 55 i: 0 src_rgst: 61 i: 1 src_rgst: 25
fptr: 0x55b128c99d60 IP is: 401096 fence: 0 rdtsc: 0 instr_id: 138 cpu: 0 cycle[cpu]: 869 branch: 0 taken: 0 i: 0 dest_rgst: 25 i: 0 src_rgst: 4 i: 1 src_rgst: 13
fptr: 0x55b128c99d60 IP is: 401099 fence: 0 rdtsc: 0 instr_id: 139 cpu: 0 cycle[cpu]: 869 branch: 1 taken: 0 i: 0 dest_rgst: 26 i: 0 src_rgst: 26 i: 1 src_rgst: 25
fptr: 0x55b128c99d60 IP is: 40109b fence: 0 rdtsc: 0 instr_id: 140 cpu: 0 cycle[cpu]: 869 branch: 0 taken: 0 i: 0 dest_rgst: 55 i: 0 src_rgst: 3 i: 1 src_rgst: 4
fptr: 0x55b128c99d60 IP is: 40109e fence: 0 rdtsc: 0 instr_id: 141 cpu: 0 cycle[cpu]: 870 branch: 0 taken: 0 i: 0 dest_rgst: 56 i: 0 src_rgst: 54
fptr: 0x55b128c99d60 IP is: 4010a0 fence: 0 rdtsc: 0 instr_id: 142 cpu: 0 cycle[cpu]: 870 branch: 0 taken: 0 i: 0 dest_rgst: 55 i: 1 dest_rgst: 25 i: 0 src_rgst: 55
fptr: 0x55b128c99d60 IP is: 4010a6 fence: 0 rdtsc: 0 instr_id: 143 cpu: 0 cycle[cpu]: 870 branch: 0 taken: 0 i: 0 dest_rgst: 56 i: 1 dest_rgst: 25 i: 0 src_rgst: 56
fptr: 0x55b128c99d60 IP is: 4010a9 fence: 0 rdtsc: 0 instr_id: 144 cpu: 0 cycle[cpu]: 870 branch: 0 taken: 0 i: 0 dest_rgst: 56 i: 1 dest_rgst: 25 i: 0 src_rgst: 56 i: 1 src_rgst: 54
fptr: 0x55b128c99d60 IP is: 4010ab fence: 0 rdtsc: 0 instr_id: 145 cpu: 0 cycle[cpu]: 871 branch: 0 taken: 0 i: 0 dest_rgst: 56 i: 1 dest_rgst: 25 i: 0 src_rgst: 56
fptr: 0x55b128c99d60 IP is: 4010ad fence: 0 rdtsc: 0 instr_id: 146 cpu: 0 cycle[cpu]: 871 branch: 0 taken: 0 i: 0 dest_rgst: 25 i: 0 src_rgst: 55
fptr: 0x55b128c99d60 IP is: 4010b3 fence: 0 rdtsc: 0 instr_id: 147 cpu: 0 cycle[cpu]: 871 branch: 1 taken: 1 i: 0 dest_rgst: 26 i: 0 src_rgst: 26 i: 1 src_rgst: 25
fptr: 0x55b128c99d60 IP is: 401070 fence: 0 rdtsc: 0 instr_id: 148 cpu: 0 cycle[cpu]: 872 branch: 0 taken: 0 i: 0 dest_rgst: 55 i: 0 src_rgst: 54
fptr: 0x55b128c99d60 IP is: 401072 fence: 0 rdtsc: 0 instr_id: 149 cpu: 0 cycle[cpu]: 872 branch: 0 taken: 0 i: 0 dest_rgst: 55 i: 1 dest_rgst: 25 i: 0 src_rgst: 55
fptr: 0x55b128c99d60 IP is: 401075 fence: 0 rdtsc: 0 instr_id: 150 cpu: 0 cycle[cpu]: 872 branch: 0 taken: 0 i: 0 dest_rgst: 54 i: 1 dest_rgst: 25 i: 0 src_rgst: 54 i: 1 src_rgst: 55
fptr: 0x55b128c99d60 IP is: 401077 fence: 0 rdtsc: 0 instr_id: 151 cpu: 0 cycle[cpu]: 872 branch: 0 taken: 0 i: 0 dest_rgst: 54 i: 1 dest_rgst: 25 i: 0 src_rgst: 54
 Retiring instr_id: 61 ip: 4198524 cpu: 0 current_core_cycle[cpu]: 872 fence: 0
 Retiring instr_id: 62 ip: 4198527 cpu: 0 current_core_cycle[cpu]: 872 fence: 0
 Retiring instr_id: 63 ip: 4198529 cpu: 0 current_core_cycle[cpu]: 872 fence: 0
 Retiring instr_id: 64 ip: 4198533 cpu: 0 current_core_cycle[cpu]: 872 fence: 0
fptr: 0x55b128c99d60 IP is: 40107a fence: 0 rdtsc: 0 instr_id: 152 cpu: 0 cycle[cpu]: 873 branch: 0 taken: 0 i: 0 dest_rgst: 54 i: 1 dest_rgst: 25 i: 0 src_rgst: 54 i: 1 src_rgst: 55
fptr: 0x55b128c99d60 IP is: 40107c fence: 0 rdtsc: 0 instr_id: 153 cpu: 0 cycle[cpu]: 873 branch: 0 taken: 0 i: 0 dest_rgst: 54 i: 1 dest_rgst: 25 i: 0 src_rgst: 54
fptr: 0x55b128c99d60 IP is: 40107f fence: 0 rdtsc: 0 instr_id: 154 cpu: 0 cycle[cpu]: 873 branch: 0 taken: 0 dest_mem: 40c2d6 i: 0 src_rgst: 4 i: 1 src_rgst: 33
fptr: 0x55b128c99d60 IP is: 401081 fence: 0 rdtsc: 0 instr_id: 155 cpu: 0 cycle[cpu]: 873 branch: 0 taken: 0 i: 0 dest_rgst: 4 i: 1 dest_rgst: 25 i: 0 src_rgst: 4
 Retiring instr_id: 65 ip: 4198538 cpu: 0 current_core_cycle[cpu]: 873 fence: 0
 Retiring instr_id: 66 ip: 4198540 cpu: 0 current_core_cycle[cpu]: 873 fence: 0
 Retiring instr_id: 67 ip: 4198543 cpu: 0 current_core_cycle[cpu]: 873 fence: 0
 Retiring instr_id: 68 ip: 4198546 cpu: 0 current_core_cycle[cpu]: 873 fence: 0
fptr: 0x55b128c99d60 IP is: 401085 fence: 0 rdtsc: 0 instr_id: 156 cpu: 0 cycle[cpu]: 874 branch: 0 taken: 0 i: 0 dest_rgst: 55
fptr: 0x55b128c99d60 IP is: 40108a fence: 0 rdtsc: 0 instr_id: 157 cpu: 0 cycle[cpu]: 874 branch: 0 taken: 0 i: 0 dest_rgst: 25 i: 0 src_rgst: 56
fptr: 0x55b128c99d60 IP is: 40108c fence: 0 rdtsc: 0 instr_id: 158 cpu: 0 cycle[cpu]: 874 branch: 0 taken: 0 i: 0 dest_rgst: 54 i: 0 src_rgst: 64
fptr: 0x55b128c99d60 IP is: 40108f fence: 0 rdtsc: 0 instr_id: 159 cpu: 0 cycle[cpu]: 874 branch: 0 taken: 0 i: 0 dest_rgst: 54 i: 0 src_rgst: 56 i: 1 src_rgst: 25
 Retiring instr_id: 69 ip: 4198550 cpu: 0 current_core_cycle[cpu]: 874 fence: 0
 Retiring instr_id: 70 ip: 4198553 cpu: 0 current_core_cycle[cpu]: 874 fence: 0
 Retiring instr_id: 71 ip: 4198555 cpu: 0 current_core_cycle[cpu]: 874 fence: 0
 Retiring instr_id: 72 ip: 4198558 cpu: 0 current_core_cycle[cpu]: 874 fence: 0
fptr: 0x55b128c99d60 IP is: 401092 fence: 0 rdtsc: 0 instr_id: 160 cpu: 0 cycle[cpu]: 875 branch: 0 taken: 0 i: 0 dest_rgst: 55 i: 0 src_rgst: 61 i: 1 src_rgst: 25
fptr: 0x55b128c99d60 IP is: 401096 fence: 0 rdtsc: 0 instr_id: 161 cpu: 0 cycle[cpu]: 875 branch: 0 taken: 0 i: 0 dest_rgst: 25 i: 0 src_rgst: 4 i: 1 src_rgst: 13
fptr: 0x55b128c99d60 IP is: 401099 fence: 0 rdtsc: 0 instr_id: 162 cpu: 0 cycle[cpu]: 875 branch: 1 taken: 0 i: 0 dest_rgst: 26 i: 0 src_rgst: 26 i: 1 src_rgst: 25
fptr: 0x55b128c99d60 IP is: 40109b fence: 0 rdtsc: 0 instr_id: 163 cpu: 0 cycle[cpu]: 875 branch: 0 taken: 0 i: 0 dest_rgst: 55 i: 0 src_rgst: 3 i: 1 src_rgst: 4
 Retiring instr_id: 73 ip: 4198560 cpu: 0 current_core_cycle[cpu]: 875 fence: 0
fptr: 0x55b128c99d60 IP is: 40109e fence: 0 rdtsc: 0 instr_id: 164 cpu: 0 cycle[cpu]: 876 branch: 0 taken: 0 i: 0 dest_rgst: 56 i: 0 src_rgst: 54
fptr: 0x55b128c99d60 IP is: 4010a0 fence: 0 rdtsc: 0 instr_id: 165 cpu: 0 cycle[cpu]: 876 branch: 0 taken: 0 i: 0 dest_rgst: 55 i: 1 dest_rgst: 25 i: 0 src_rgst: 55
fptr: 0x55b128c99d60 IP is: 4010a6 fence: 0 rdtsc: 0 instr_id: 166 cpu: 0 cycle[cpu]: 876 branch: 0 taken: 0 i: 0 dest_rgst: 56 i: 1 dest_rgst: 25 i: 0 src_rgst: 56
fptr: 0x55b128c99d60 IP is: 4010a9 fence: 0 rdtsc: 0 instr_id: 167 cpu: 0 cycle[cpu]: 876 branch: 0 taken: 0 i: 0 dest_rgst: 56 i: 1 dest_rgst: 25 i: 0 src_rgst: 56 i: 1 src_rgst: 54
fptr: 0x55b128c99d60 IP is: 4010ab fence: 0 rdtsc: 0 instr_id: 168 cpu: 0 cycle[cpu]: 877 branch: 0 taken: 0 i: 0 dest_rgst: 56 i: 1 dest_rgst: 25 i: 0 src_rgst: 56
fptr: 0x55b128c99d60 IP is: 4010ad fence: 0 rdtsc: 0 instr_id: 169 cpu: 0 cycle[cpu]: 877 branch: 0 taken: 0 i: 0 dest_rgst: 25 i: 0 src_rgst: 55
fptr: 0x55b128c99d60 IP is: 4010b3 fence: 0 rdtsc: 0 instr_id: 170 cpu: 0 cycle[cpu]: 877 branch: 1 taken: 1 i: 0 dest_rgst: 26 i: 0 src_rgst: 26 i: 1 src_rgst: 25
fptr: 0x55b128c99d60 IP is: 401070 fence: 0 rdtsc: 0 instr_id: 171 cpu: 0 cycle[cpu]: 878 branch: 0 taken: 0 i: 0 dest_rgst: 55 i: 0 src_rgst: 54
fptr: 0x55b128c99d60 IP is: 401072 fence: 0 rdtsc: 0 instr_id: 172 cpu: 0 cycle[cpu]: 878 branch: 0 taken: 0 i: 0 dest_rgst: 55 i: 1 dest_rgst: 25 i: 0 src_rgst: 55
fptr: 0x55b128c99d60 IP is: 401075 fence: 0 rdtsc: 0 instr_id: 173 cpu: 0 cycle[cpu]: 878 branch: 0 taken: 0 i: 0 dest_rgst: 54 i: 1 dest_rgst: 25 i: 0 src_rgst: 54 i: 1 src_rgst: 55
fptr: 0x55b128c99d60 IP is: 401077 fence: 0 rdtsc: 0 instr_id: 174 cpu: 0 cycle[cpu]: 878 branch: 0 taken: 0 i: 0 dest_rgst: 54 i: 1 dest_rgst: 25 i: 0 src_rgst: 54
 Retiring instr_id: 74 ip: 4198566 cpu: 0 current_core_cycle[cpu]: 878 fence: 0
fptr: 0x55b128c99d60 IP is: 40107a fence: 0 rdtsc: 0 instr_id: 175 cpu: 0 cycle[cpu]: 879 branch: 0 taken: 0 i: 0 dest_rgst: 54 i: 1 dest_rgst: 25 i: 0 src_rgst: 54 i: 1 src_rgst: 55
fptr: 0x55b128c99d60 IP is: 40107c fence: 0 rdtsc: 0 instr_id: 176 cpu: 0 cycle[cpu]: 879 branch: 0 taken: 0 i: 0 dest_rgst: 54 i: 1 dest_rgst: 25 i: 0 src_rgst: 54
fptr: 0x55b128c99d60 IP is: 40107f fence: 0 rdtsc: 0 instr_id: 177 cpu: 0 cycle[cpu]: 879 branch: 0 taken: 0 dest_mem: 40c2d7 i: 0 src_rgst: 4 i: 1 src_rgst: 33
fptr: 0x55b128c99d60 IP is: 401081 fence: 0 rdtsc: 0 instr_id: 178 cpu: 0 cycle[cpu]: 879 branch: 0 taken: 0 i: 0 dest_rgst: 4 i: 1 dest_rgst: 25 i: 0 src_rgst: 4
fptr: 0x55b128c99d60 IP is: 401085 fence: 0 rdtsc: 0 instr_id: 179 cpu: 0 cycle[cpu]: 880 branch: 0 taken: 0 i: 0 dest_rgst: 55
fptr: 0x55b128c99d60 IP is: 40108a fence: 0 rdtsc: 0 instr_id: 180 cpu: 0 cycle[cpu]: 880 branch: 0 taken: 0 i: 0 dest_rgst: 25 i: 0 src_rgst: 56
fptr: 0x55b128c99d60 IP is: 40108c fence: 0 rdtsc: 0 instr_id: 181 cpu: 0 cycle[cpu]: 880 branch: 0 taken: 0 i: 0 dest_rgst: 54 i: 0 src_rgst: 64
fptr: 0x55b128c99d60 IP is: 40108f fence: 0 rdtsc: 0 instr_id: 182 cpu: 0 cycle[cpu]: 880 branch: 0 taken: 0 i: 0 dest_rgst: 54 i: 0 src_rgst: 56 i: 1 src_rgst: 25
 Retiring instr_id: 75 ip: 4198569 cpu: 0 current_core_cycle[cpu]: 880 fence: 0
fptr: 0x55b128c99d60 IP is: 401092 fence: 0 rdtsc: 0 instr_id: 183 cpu: 0 cycle[cpu]: 881 branch: 0 taken: 0 i: 0 dest_rgst: 55 i: 0 src_rgst: 61 i: 1 src_rgst: 25
fptr: 0x55b128c99d60 IP is: 401096 fence: 0 rdtsc: 0 instr_id: 184 cpu: 0 cycle[cpu]: 881 branch: 0 taken: 0 i: 0 dest_rgst: 25 i: 0 src_rgst: 4 i: 1 src_rgst: 13
fptr: 0x55b128c99d60 IP is: 401099 fence: 0 rdtsc: 0 instr_id: 185 cpu: 0 cycle[cpu]: 881 branch: 1 taken: 0 i: 0 dest_rgst: 26 i: 0 src_rgst: 26 i: 1 src_rgst: 25
fptr: 0x55b128c99d60 IP is: 40109b fence: 0 rdtsc: 0 instr_id: 186 cpu: 0 cycle[cpu]: 881 branch: 0 taken: 0 i: 0 dest_rgst: 55 i: 0 src_rgst: 3 i: 1 src_rgst: 4
fptr: 0x55b128c99d60 IP is: 40109e fence: 0 rdtsc: 0 instr_id: 187 cpu: 0 cycle[cpu]: 882 branch: 0 taken: 0 i: 0 dest_rgst: 56 i: 0 src_rgst: 54
fptr: 0x55b128c99d60 IP is: 4010a0 fence: 0 rdtsc: 0 instr_id: 188 cpu: 0 cycle[cpu]: 882 branch: 0 taken: 0 i: 0 dest_rgst: 55 i: 1 dest_rgst: 25 i: 0 src_rgst: 55
fptr: 0x55b128c99d60 IP is: 4010a6 fence: 0 rdtsc: 0 instr_id: 189 cpu: 0 cycle[cpu]: 882 branch: 0 taken: 0 i: 0 dest_rgst: 56 i: 1 dest_rgst: 25 i: 0 src_rgst: 56
fptr: 0x55b128c99d60 IP is: 4010a9 fence: 0 rdtsc: 0 instr_id: 190 cpu: 0 cycle[cpu]: 882 branch: 0 taken: 0 i: 0 dest_rgst: 56 i: 1 dest_rgst: 25 i: 0 src_rgst: 56 i: 1 src_rgst: 54
fptr: 0x55b128c99d60 IP is: 4010ab fence: 0 rdtsc: 0 instr_id: 191 cpu: 0 cycle[cpu]: 883 branch: 0 taken: 0 i: 0 dest_rgst: 56 i: 1 dest_rgst: 25 i: 0 src_rgst: 56
fptr: 0x55b128c99d60 IP is: 4010ad fence: 0 rdtsc: 0 instr_id: 192 cpu: 0 cycle[cpu]: 883 branch: 0 taken: 0 i: 0 dest_rgst: 25 i: 0 src_rgst: 55
fptr: 0x55b128c99d60 IP is: 4010b3 fence: 0 rdtsc: 0 instr_id: 193 cpu: 0 cycle[cpu]: 883 branch: 1 taken: 1 i: 0 dest_rgst: 26 i: 0 src_rgst: 26 i: 1 src_rgst: 25
fptr: 0x55b128c99d60 IP is: 401070 fence: 0 rdtsc: 0 instr_id: 194 cpu: 0 cycle[cpu]: 884 branch: 0 taken: 0 i: 0 dest_rgst: 55 i: 0 src_rgst: 54
fptr: 0x55b128c99d60 IP is: 401072 fence: 0 rdtsc: 0 instr_id: 195 cpu: 0 cycle[cpu]: 884 branch: 0 taken: 0 i: 0 dest_rgst: 55 i: 1 dest_rgst: 25 i: 0 src_rgst: 55
fptr: 0x55b128c99d60 IP is: 401075 fence: 0 rdtsc: 0 instr_id: 196 cpu: 0 cycle[cpu]: 884 branch: 0 taken: 0 i: 0 dest_rgst: 54 i: 1 dest_rgst: 25 i: 0 src_rgst: 54 i: 1 src_rgst: 55
fptr: 0x55b128c99d60 IP is: 401077 fence: 0 rdtsc: 0 instr_id: 197 cpu: 0 cycle[cpu]: 884 branch: 0 taken: 0 i: 0 dest_rgst: 54 i: 1 dest_rgst: 25 i: 0 src_rgst: 54
 Retiring instr_id: 76 ip: 4198571 cpu: 0 current_core_cycle[cpu]: 884 fence: 0
 Retiring instr_id: 77 ip: 4198573 cpu: 0 current_core_cycle[cpu]: 884 fence: 0
 Retiring instr_id: 78 ip: 4198579 cpu: 0 current_core_cycle[cpu]: 884 fence: 0
 Retiring instr_id: 79 ip: 4198512 cpu: 0 current_core_cycle[cpu]: 884 fence: 0
fptr: 0x55b128c99d60 IP is: 40107a fence: 0 rdtsc: 0 instr_id: 198 cpu: 0 cycle[cpu]: 885 branch: 0 taken: 0 i: 0 dest_rgst: 54 i: 1 dest_rgst: 25 i: 0 src_rgst: 54 i: 1 src_rgst: 55
fptr: 0x55b128c99d60 IP is: 40107c fence: 0 rdtsc: 0 instr_id: 199 cpu: 0 cycle[cpu]: 885 branch: 0 taken: 0 i: 0 dest_rgst: 54 i: 1 dest_rgst: 25 i: 0 src_rgst: 54
fptr: 0x55b128c99d60 IP is: 40107f fence: 0 rdtsc: 0 instr_id: 200 cpu: 0 cycle[cpu]: 885 branch: 0 taken: 0 dest_mem: 40c2d8 i: 0 src_rgst: 4 i: 1 src_rgst: 33
fptr: 0x55b128c99d60 IP is: 401081 fence: 0 rdtsc: 0 instr_id: 201 cpu: 0 cycle[cpu]: 885 branch: 0 taken: 0 i: 0 dest_rgst: 4 i: 1 dest_rgst: 25 i: 0 src_rgst: 4
 Retiring instr_id: 80 ip: 4198514 cpu: 0 current_core_cycle[cpu]: 885 fence: 0
 Retiring instr_id: 81 ip: 4198517 cpu: 0 current_core_cycle[cpu]: 885 fence: 0
 Retiring instr_id: 82 ip: 4198519 cpu: 0 current_core_cycle[cpu]: 885 fence: 0
fptr: 0x55b128c99d60 IP is: 401085 fence: 0 rdtsc: 0 instr_id: 202 cpu: 0 cycle[cpu]: 886 branch: 0 taken: 0 i: 0 dest_rgst: 55
fptr: 0x55b128c99d60 IP is: 40108a fence: 0 rdtsc: 0 instr_id: 203 cpu: 0 cycle[cpu]: 886 branch: 0 taken: 0 i: 0 dest_rgst: 25 i: 0 src_rgst: 56
fptr: 0x55b128c99d60 IP is: 40108c fence: 0 rdtsc: 0 instr_id: 204 cpu: 0 cycle[cpu]: 886 branch: 0 taken: 0 i: 0 dest_rgst: 54 i: 0 src_rgst: 64
fptr: 0x55b128c99d60 IP is: 40108f fence: 0 rdtsc: 0 instr_id: 205 cpu: 0 cycle[cpu]: 886 branch: 0 taken: 0 i: 0 dest_rgst: 54 i: 0 src_rgst: 56 i: 1 src_rgst: 25
 Retiring instr_id: 83 ip: 4198522 cpu: 0 current_core_cycle[cpu]: 886 fence: 0
fptr: 0x55b128c99d60 IP is: 401092 fence: 0 rdtsc: 0 instr_id: 206 cpu: 0 cycle[cpu]: 887 branch: 0 taken: 0 i: 0 dest_rgst: 55 i: 0 src_rgst: 61 i: 1 src_rgst: 25
fptr: 0x55b128c99d60 IP is: 401096 fence: 0 rdtsc: 0 instr_id: 207 cpu: 0 cycle[cpu]: 887 branch: 0 taken: 0 i: 0 dest_rgst: 25 i: 0 src_rgst: 4 i: 1 src_rgst: 13
fptr: 0x55b128c99d60 IP is: 401099 fence: 0 rdtsc: 0 instr_id: 208 cpu: 0 cycle[cpu]: 887 branch: 1 taken: 0 i: 0 dest_rgst: 26 i: 0 src_rgst: 26 i: 1 src_rgst: 25
fptr: 0x55b128c99d60 IP is: 40109b fence: 0 rdtsc: 0 instr_id: 209 cpu: 0 cycle[cpu]: 887 branch: 0 taken: 0 i: 0 dest_rgst: 55 i: 0 src_rgst: 3 i: 1 src_rgst: 4
fptr: 0x55b128c99d60 IP is: 40109e fence: 0 rdtsc: 0 instr_id: 210 cpu: 0 cycle[cpu]: 888 branch: 0 taken: 0 i: 0 dest_rgst: 56 i: 0 src_rgst: 54
fptr: 0x55b128c99d60 IP is: 4010a0 fence: 0 rdtsc: 0 instr_id: 211 cpu: 0 cycle[cpu]: 888 branch: 0 taken: 0 i: 0 dest_rgst: 55 i: 1 dest_rgst: 25 i: 0 src_rgst: 55
fptr: 0x55b128c99d60 IP is: 4010a6 fence: 0 rdtsc: 0 instr_id: 212 cpu: 0 cycle[cpu]: 888 branch: 0 taken: 0 i: 0 dest_rgst: 56 i: 1 dest_rgst: 25 i: 0 src_rgst: 56
fptr: 0x55b128c99d60 IP is: 4010a9 fence: 0 rdtsc: 0 instr_id: 213 cpu: 0 cycle[cpu]: 888 branch: 0 taken: 0 i: 0 dest_rgst: 56 i: 1 dest_rgst: 25 i: 0 src_rgst: 56 i: 1 src_rgst: 54
fptr: 0x55b128c99d60 IP is: 4010ab fence: 0 rdtsc: 0 instr_id: 214 cpu: 0 cycle[cpu]: 889 branch: 0 taken: 0 i: 0 dest_rgst: 56 i: 1 dest_rgst: 25 i: 0 src_rgst: 56
fptr: 0x55b128c99d60 IP is: 4010ad fence: 0 rdtsc: 0 instr_id: 215 cpu: 0 cycle[cpu]: 889 branch: 0 taken: 0 i: 0 dest_rgst: 25 i: 0 src_rgst: 55
fptr: 0x55b128c99d60 IP is: 4010b3 fence: 0 rdtsc: 0 instr_id: 216 cpu: 0 cycle[cpu]: 889 branch: 1 taken: 1 i: 0 dest_rgst: 26 i: 0 src_rgst: 26 i: 1 src_rgst: 25
fptr: 0x55b128c99d60 IP is: 401070 fence: 0 rdtsc: 0 instr_id: 217 cpu: 0 cycle[cpu]: 890 branch: 0 taken: 0 i: 0 dest_rgst: 55 i: 0 src_rgst: 54
fptr: 0x55b128c99d60 IP is: 401072 fence: 0 rdtsc: 0 instr_id: 218 cpu: 0 cycle[cpu]: 890 branch: 0 taken: 0 i: 0 dest_rgst: 55 i: 1 dest_rgst: 25 i: 0 src_rgst: 55
fptr: 0x55b128c99d60 IP is: 401075 fence: 0 rdtsc: 0 instr_id: 219 cpu: 0 cycle[cpu]: 890 branch: 0 taken: 0 i: 0 dest_rgst: 54 i: 1 dest_rgst: 25 i: 0 src_rgst: 54 i: 1 src_rgst: 55
fptr: 0x55b128c99d60 IP is: 401077 fence: 0 rdtsc: 0 instr_id: 220 cpu: 0 cycle[cpu]: 890 branch: 0 taken: 0 i: 0 dest_rgst: 54 i: 1 dest_rgst: 25 i: 0 src_rgst: 54
 Retiring instr_id: 84 ip: 4198524 cpu: 0 current_core_cycle[cpu]: 890 fence: 0
 Retiring instr_id: 85 ip: 4198527 cpu: 0 current_core_cycle[cpu]: 890 fence: 0
 Retiring instr_id: 86 ip: 4198529 cpu: 0 current_core_cycle[cpu]: 890 fence: 0
 Retiring instr_id: 87 ip: 4198533 cpu: 0 current_core_cycle[cpu]: 890 fence: 0
fptr: 0x55b128c99d60 IP is: 40107a fence: 0 rdtsc: 0 instr_id: 221 cpu: 0 cycle[cpu]: 891 branch: 0 taken: 0 i: 0 dest_rgst: 54 i: 1 dest_rgst: 25 i: 0 src_rgst: 54 i: 1 src_rgst: 55
fptr: 0x55b128c99d60 IP is: 40107c fence: 0 rdtsc: 0 instr_id: 222 cpu: 0 cycle[cpu]: 891 branch: 0 taken: 0 i: 0 dest_rgst: 54 i: 1 dest_rgst: 25 i: 0 src_rgst: 54
fptr: 0x55b128c99d60 IP is: 40107f fence: 0 rdtsc: 0 instr_id: 223 cpu: 0 cycle[cpu]: 891 branch: 0 taken: 0 dest_mem: 40c2d9 i: 0 src_rgst: 4 i: 1 src_rgst: 33
fptr: 0x55b128c99d60 IP is: 401081 fence: 0 rdtsc: 0 instr_id: 224 cpu: 0 cycle[cpu]: 891 branch: 0 taken: 0 i: 0 dest_rgst: 4 i: 1 dest_rgst: 25 i: 0 src_rgst: 4
 Retiring instr_id: 88 ip: 4198538 cpu: 0 current_core_cycle[cpu]: 891 fence: 0
 Retiring instr_id: 89 ip: 4198540 cpu: 0 current_core_cycle[cpu]: 891 fence: 0
 Retiring instr_id: 90 ip: 4198543 cpu: 0 current_core_cycle[cpu]: 891 fence: 0
 Retiring instr_id: 91 ip: 4198546 cpu: 0 current_core_cycle[cpu]: 891 fence: 0
fptr: 0x55b128c99d60 IP is: 401085 fence: 0 rdtsc: 0 instr_id: 225 cpu: 0 cycle[cpu]: 892 branch: 0 taken: 0 i: 0 dest_rgst: 55
fptr: 0x55b128c99d60 IP is: 40108a fence: 0 rdtsc: 0 instr_id: 226 cpu: 0 cycle[cpu]: 892 branch: 0 taken: 0 i: 0 dest_rgst: 25 i: 0 src_rgst: 56
fptr: 0x55b128c99d60 IP is: 40108c fence: 0 rdtsc: 0 instr_id: 227 cpu: 0 cycle[cpu]: 892 branch: 0 taken: 0 i: 0 dest_rgst: 54 i: 0 src_rgst: 64
fptr: 0x55b128c99d60 IP is: 40108f fence: 0 rdtsc: 0 instr_id: 228 cpu: 0 cycle[cpu]: 892 branch: 0 taken: 0 i: 0 dest_rgst: 54 i: 0 src_rgst: 56 i: 1 src_rgst: 25
 Retiring instr_id: 92 ip: 4198550 cpu: 0 current_core_cycle[cpu]: 892 fence: 0
 Retiring instr_id: 93 ip: 4198553 cpu: 0 current_core_cycle[cpu]: 892 fence: 0
 Retiring instr_id: 94 ip: 4198555 cpu: 0 current_core_cycle[cpu]: 892 fence: 0
 Retiring instr_id: 95 ip: 4198558 cpu: 0 current_core_cycle[cpu]: 892 fence: 0
fptr: 0x55b128c99d60 IP is: 401092 fence: 0 rdtsc: 0 instr_id: 229 cpu: 0 cycle[cpu]: 893 branch: 0 taken: 0 i: 0 dest_rgst: 55 i: 0 src_rgst: 61 i: 1 src_rgst: 25
fptr: 0x55b128c99d60 IP is: 401096 fence: 0 rdtsc: 0 instr_id: 230 cpu: 0 cycle[cpu]: 893 branch: 0 taken: 0 i: 0 dest_rgst: 25 i: 0 src_rgst: 4 i: 1 src_rgst: 13
fptr: 0x55b128c99d60 IP is: 401099 fence: 0 rdtsc: 0 instr_id: 231 cpu: 0 cycle[cpu]: 893 branch: 1 taken: 0 i: 0 dest_rgst: 26 i: 0 src_rgst: 26 i: 1 src_rgst: 25
fptr: 0x55b128c99d60 IP is: 40109b fence: 0 rdtsc: 0 instr_id: 232 cpu: 0 cycle[cpu]: 893 branch: 0 taken: 0 i: 0 dest_rgst: 55 i: 0 src_rgst: 3 i: 1 src_rgst: 4
 Retiring instr_id: 96 ip: 4198560 cpu: 0 current_core_cycle[cpu]: 893 fence: 0
fptr: 0x55b128c99d60 IP is: 40109e fence: 0 rdtsc: 0 instr_id: 233 cpu: 0 cycle[cpu]: 894 branch: 0 taken: 0 i: 0 dest_rgst: 56 i: 0 src_rgst: 54
fptr: 0x55b128c99d60 IP is: 4010a0 fence: 0 rdtsc: 0 instr_id: 234 cpu: 0 cycle[cpu]: 894 branch: 0 taken: 0 i: 0 dest_rgst: 55 i: 1 dest_rgst: 25 i: 0 src_rgst: 55
fptr: 0x55b128c99d60 IP is: 4010a6 fence: 0 rdtsc: 0 instr_id: 235 cpu: 0 cycle[cpu]: 894 branch: 0 taken: 0 i: 0 dest_rgst: 56 i: 1 dest_rgst: 25 i: 0 src_rgst: 56
fptr: 0x55b128c99d60 IP is: 4010a9 fence: 0 rdtsc: 0 instr_id: 236 cpu: 0 cycle[cpu]: 894 branch: 0 taken: 0 i: 0 dest_rgst: 56 i: 1 dest_rgst: 25 i: 0 src_rgst: 56 i: 1 src_rgst: 54
fptr: 0x55b128c99d60 IP is: 4010ab fence: 0 rdtsc: 0 instr_id: 237 cpu: 0 cycle[cpu]: 895 branch: 0 taken: 0 i: 0 dest_rgst: 56 i: 1 dest_rgst: 25 i: 0 src_rgst: 56
fptr: 0x55b128c99d60 IP is: 4010ad fence: 0 rdtsc: 0 instr_id: 238 cpu: 0 cycle[cpu]: 895 branch: 0 taken: 0 i: 0 dest_rgst: 25 i: 0 src_rgst: 55
fptr: 0x55b128c99d60 IP is: 4010b3 fence: 0 rdtsc: 0 instr_id: 239 cpu: 0 cycle[cpu]: 895 branch: 1 taken: 1 i: 0 dest_rgst: 26 i: 0 src_rgst: 26 i: 1 src_rgst: 25
fptr: 0x55b128c99d60 IP is: 401070 fence: 0 rdtsc: 0 instr_id: 240 cpu: 0 cycle[cpu]: 896 branch: 0 taken: 0 i: 0 dest_rgst: 55 i: 0 src_rgst: 54
fptr: 0x55b128c99d60 IP is: 401072 fence: 0 rdtsc: 0 instr_id: 241 cpu: 0 cycle[cpu]: 896 branch: 0 taken: 0 i: 0 dest_rgst: 55 i: 1 dest_rgst: 25 i: 0 src_rgst: 55
fptr: 0x55b128c99d60 IP is: 401075 fence: 0 rdtsc: 0 instr_id: 242 cpu: 0 cycle[cpu]: 896 branch: 0 taken: 0 i: 0 dest_rgst: 54 i: 1 dest_rgst: 25 i: 0 src_rgst: 54 i: 1 src_rgst: 55
fptr: 0x55b128c99d60 IP is: 401077 fence: 0 rdtsc: 0 instr_id: 243 cpu: 0 cycle[cpu]: 896 branch: 0 taken: 0 i: 0 dest_rgst: 54 i: 1 dest_rgst: 25 i: 0 src_rgst: 54
 Retiring instr_id: 97 ip: 4198566 cpu: 0 current_core_cycle[cpu]: 896 fence: 0
fptr: 0x55b128c99d60 IP is: 40107a fence: 0 rdtsc: 0 instr_id: 244 cpu: 0 cycle[cpu]: 897 branch: 0 taken: 0 i: 0 dest_rgst: 54 i: 1 dest_rgst: 25 i: 0 src_rgst: 54 i: 1 src_rgst: 55
fptr: 0x55b128c99d60 IP is: 40107c fence: 0 rdtsc: 0 instr_id: 245 cpu: 0 cycle[cpu]: 897 branch: 0 taken: 0 i: 0 dest_rgst: 54 i: 1 dest_rgst: 25 i: 0 src_rgst: 54
fptr: 0x55b128c99d60 IP is: 40107f fence: 0 rdtsc: 0 instr_id: 246 cpu: 0 cycle[cpu]: 897 branch: 0 taken: 0 dest_mem: 40c2da i: 0 src_rgst: 4 i: 1 src_rgst: 33
fptr: 0x55b128c99d60 IP is: 401081 fence: 0 rdtsc: 0 instr_id: 247 cpu: 0 cycle[cpu]: 897 branch: 0 taken: 0 i: 0 dest_rgst: 4 i: 1 dest_rgst: 25 i: 0 src_rgst: 4
fptr: 0x55b128c99d60 IP is: 401085 fence: 0 rdtsc: 0 instr_id: 248 cpu: 0 cycle[cpu]: 898 branch: 0 taken: 0 i: 0 dest_rgst: 55
fptr: 0x55b128c99d60 IP is: 40108a fence: 0 rdtsc: 0 instr_id: 249 cpu: 0 cycle[cpu]: 898 branch: 0 taken: 0 i: 0 dest_rgst: 25 i: 0 src_rgst: 56
fptr: 0x55b128c99d60 IP is: 40108c fence: 0 rdtsc: 0 instr_id: 250 cpu: 0 cycle[cpu]: 898 branch: 0 taken: 0 i: 0 dest_rgst: 54 i: 0 src_rgst: 64
fptr: 0x55b128c99d60 IP is: 40108f fence: 0 rdtsc: 0 instr_id: 251 cpu: 0 cycle[cpu]: 898 branch: 0 taken: 0 i: 0 dest_rgst: 54 i: 0 src_rgst: 56 i: 1 src_rgst: 25
 Retiring instr_id: 98 ip: 4198569 cpu: 0 current_core_cycle[cpu]: 898 fence: 0
fptr: 0x55b128c99d60 IP is: 401092 fence: 0 rdtsc: 0 instr_id: 252 cpu: 0 cycle[cpu]: 899 branch: 0 taken: 0 i: 0 dest_rgst: 55 i: 0 src_rgst: 61 i: 1 src_rgst: 25
fptr: 0x55b128c99d60 IP is: 401096 fence: 0 rdtsc: 0 instr_id: 253 cpu: 0 cycle[cpu]: 899 branch: 0 taken: 0 i: 0 dest_rgst: 25 i: 0 src_rgst: 4 i: 1 src_rgst: 13
fptr: 0x55b128c99d60 IP is: 401099 fence: 0 rdtsc: 0 instr_id: 254 cpu: 0 cycle[cpu]: 899 branch: 1 taken: 0 i: 0 dest_rgst: 26 i: 0 src_rgst: 26 i: 1 src_rgst: 25
fptr: 0x55b128c99d60 IP is: 40109b fence: 0 rdtsc: 0 instr_id: 255 cpu: 0 cycle[cpu]: 899 branch: 0 taken: 0 i: 0 dest_rgst: 55 i: 0 src_rgst: 3 i: 1 src_rgst: 4
fptr: 0x55b128c99d60 IP is: 40109e fence: 0 rdtsc: 0 instr_id: 256 cpu: 0 cycle[cpu]: 900 branch: 0 taken: 0 i: 0 dest_rgst: 56 i: 0 src_rgst: 54
fptr: 0x55b128c99d60 IP is: 4010a0 fence: 0 rdtsc: 0 instr_id: 257 cpu: 0 cycle[cpu]: 900 branch: 0 taken: 0 i: 0 dest_rgst: 55 i: 1 dest_rgst: 25 i: 0 src_rgst: 55
fptr: 0x55b128c99d60 IP is: 4010a6 fence: 0 rdtsc: 0 instr_id: 258 cpu: 0 cycle[cpu]: 900 branch: 0 taken: 0 i: 0 dest_rgst: 56 i: 1 dest_rgst: 25 i: 0 src_rgst: 56
fptr: 0x55b128c99d60 IP is: 4010a9 fence: 0 rdtsc: 0 instr_id: 259 cpu: 0 cycle[cpu]: 900 branch: 0 taken: 0 i: 0 dest_rgst: 56 i: 1 dest_rgst: 25 i: 0 src_rgst: 56 i: 1 src_rgst: 54
fptr: 0x55b128c99d60 IP is: 4010ab fence: 0 rdtsc: 0 instr_id: 260 cpu: 0 cycle[cpu]: 901 branch: 0 taken: 0 i: 0 dest_rgst: 56 i: 1 dest_rgst: 25 i: 0 src_rgst: 56
fptr: 0x55b128c99d60 IP is: 4010ad fence: 0 rdtsc: 0 instr_id: 261 cpu: 0 cycle[cpu]: 901 branch: 0 taken: 0 i: 0 dest_rgst: 25 i: 0 src_rgst: 55
fptr: 0x55b128c99d60 IP is: 4010b3 fence: 0 rdtsc: 0 instr_id: 262 cpu: 0 cycle[cpu]: 901 branch: 1 taken: 1 i: 0 dest_rgst: 26 i: 0 src_rgst: 26 i: 1 src_rgst: 25
fptr: 0x55b128c99d60 IP is: 401070 fence: 0 rdtsc: 0 instr_id: 263 cpu: 0 cycle[cpu]: 902 branch: 0 taken: 0 i: 0 dest_rgst: 55 i: 0 src_rgst: 54
fptr: 0x55b128c99d60 IP is: 401072 fence: 0 rdtsc: 0 instr_id: 264 cpu: 0 cycle[cpu]: 902 branch: 0 taken: 0 i: 0 dest_rgst: 55 i: 1 dest_rgst: 25 i: 0 src_rgst: 55
fptr: 0x55b128c99d60 IP is: 401075 fence: 0 rdtsc: 0 instr_id: 265 cpu: 0 cycle[cpu]: 902 branch: 0 taken: 0 i: 0 dest_rgst: 54 i: 1 dest_rgst: 25 i: 0 src_rgst: 54 i: 1 src_rgst: 55
fptr: 0x55b128c99d60 IP is: 401077 fence: 0 rdtsc: 0 instr_id: 266 cpu: 0 cycle[cpu]: 902 branch: 0 taken: 0 i: 0 dest_rgst: 54 i: 1 dest_rgst: 25 i: 0 src_rgst: 54
 Retiring instr_id: 99 ip: 4198571 cpu: 0 current_core_cycle[cpu]: 902 fence: 0
 Retiring instr_id: 100 ip: 4198573 cpu: 0 current_core_cycle[cpu]: 902 fence: 0
 Retiring instr_id: 101 ip: 4198579 cpu: 0 current_core_cycle[cpu]: 902 fence: 0
 Retiring instr_id: 102 ip: 4198512 cpu: 0 current_core_cycle[cpu]: 902 fence: 0
fptr: 0x55b128c99d60 IP is: 40107a fence: 0 rdtsc: 0 instr_id: 267 cpu: 0 cycle[cpu]: 903 branch: 0 taken: 0 i: 0 dest_rgst: 54 i: 1 dest_rgst: 25 i: 0 src_rgst: 54 i: 1 src_rgst: 55
fptr: 0x55b128c99d60 IP is: 40107c fence: 0 rdtsc: 0 instr_id: 268 cpu: 0 cycle[cpu]: 903 branch: 0 taken: 0 i: 0 dest_rgst: 54 i: 1 dest_rgst: 25 i: 0 src_rgst: 54
fptr: 0x55b128c99d60 IP is: 40107f fence: 0 rdtsc: 0 instr_id: 269 cpu: 0 cycle[cpu]: 903 branch: 0 taken: 0 dest_mem: 40c2db i: 0 src_rgst: 4 i: 1 src_rgst: 33
fptr: 0x55b128c99d60 IP is: 401081 fence: 0 rdtsc: 0 instr_id: 270 cpu: 0 cycle[cpu]: 903 branch: 0 taken: 0 i: 0 dest_rgst: 4 i: 1 dest_rgst: 25 i: 0 src_rgst: 4
 Retiring instr_id: 103 ip: 4198514 cpu: 0 current_core_cycle[cpu]: 903 fence: 0
 Retiring instr_id: 104 ip: 4198517 cpu: 0 current_core_cycle[cpu]: 903 fence: 0
 Retiring instr_id: 105 ip: 4198519 cpu: 0 current_core_cycle[cpu]: 903 fence: 0
fptr: 0x55b128c99d60 IP is: 401085 fence: 0 rdtsc: 0 instr_id: 271 cpu: 0 cycle[cpu]: 904 branch: 0 taken: 0 i: 0 dest_rgst: 55
fptr: 0x55b128c99d60 IP is: 40108a fence: 0 rdtsc: 0 instr_id: 272 cpu: 0 cycle[cpu]: 904 branch: 0 taken: 0 i: 0 dest_rgst: 25 i: 0 src_rgst: 56
fptr: 0x55b128c99d60 IP is: 40108c fence: 0 rdtsc: 0 instr_id: 273 cpu: 0 cycle[cpu]: 904 branch: 0 taken: 0 i: 0 dest_rgst: 54 i: 0 src_rgst: 64
fptr: 0x55b128c99d60 IP is: 40108f fence: 0 rdtsc: 0 instr_id: 274 cpu: 0 cycle[cpu]: 904 branch: 0 taken: 0 i: 0 dest_rgst: 54 i: 0 src_rgst: 56 i: 1 src_rgst: 25
 Retiring instr_id: 106 ip: 4198522 cpu: 0 current_core_cycle[cpu]: 904 fence: 0
fptr: 0x55b128c99d60 IP is: 401092 fence: 0 rdtsc: 0 instr_id: 275 cpu: 0 cycle[cpu]: 905 branch: 0 taken: 0 i: 0 dest_rgst: 55 i: 0 src_rgst: 61 i: 1 src_rgst: 25
fptr: 0x55b128c99d60 IP is: 401096 fence: 0 rdtsc: 0 instr_id: 276 cpu: 0 cycle[cpu]: 905 branch: 0 taken: 0 i: 0 dest_rgst: 25 i: 0 src_rgst: 4 i: 1 src_rgst: 13
fptr: 0x55b128c99d60 IP is: 401099 fence: 0 rdtsc: 0 instr_id: 277 cpu: 0 cycle[cpu]: 905 branch: 1 taken: 0 i: 0 dest_rgst: 26 i: 0 src_rgst: 26 i: 1 src_rgst: 25
fptr: 0x55b128c99d60 IP is: 40109b fence: 0 rdtsc: 0 instr_id: 278 cpu: 0 cycle[cpu]: 905 branch: 0 taken: 0 i: 0 dest_rgst: 55 i: 0 src_rgst: 3 i: 1 src_rgst: 4
fptr: 0x55b128c99d60 IP is: 40109e fence: 0 rdtsc: 0 instr_id: 279 cpu: 0 cycle[cpu]: 906 branch: 0 taken: 0 i: 0 dest_rgst: 56 i: 0 src_rgst: 54
fptr: 0x55b128c99d60 IP is: 4010a0 fence: 0 rdtsc: 0 instr_id: 280 cpu: 0 cycle[cpu]: 906 branch: 0 taken: 0 i: 0 dest_rgst: 55 i: 1 dest_rgst: 25 i: 0 src_rgst: 55
fptr: 0x55b128c99d60 IP is: 4010a6 fence: 0 rdtsc: 0 instr_id: 281 cpu: 0 cycle[cpu]: 906 branch: 0 taken: 0 i: 0 dest_rgst: 56 i: 1 dest_rgst: 25 i: 0 src_rgst: 56
fptr: 0x55b128c99d60 IP is: 4010a9 fence: 0 rdtsc: 0 instr_id: 282 cpu: 0 cycle[cpu]: 906 branch: 0 taken: 0 i: 0 dest_rgst: 56 i: 1 dest_rgst: 25 i: 0 src_rgst: 56 i: 1 src_rgst: 54
 Retiring instr_id: 107 ip: 4198524 cpu: 0 current_core_cycle[cpu]: 906 fence: 0
 Retiring instr_id: 108 ip: 4198527 cpu: 0 current_core_cycle[cpu]: 906 fence: 0
 Retiring instr_id: 109 ip: 4198529 cpu: 0 current_core_cycle[cpu]: 906 fence: 0
 Retiring instr_id: 110 ip: 4198533 cpu: 0 current_core_cycle[cpu]: 906 fence: 0
fptr: 0x55b128c99d60 IP is: 4010ab fence: 0 rdtsc: 0 instr_id: 283 cpu: 0 cycle[cpu]: 907 branch: 0 taken: 0 i: 0 dest_rgst: 56 i: 1 dest_rgst: 25 i: 0 src_rgst: 56
fptr: 0x55b128c99d60 IP is: 4010ad fence: 0 rdtsc: 0 instr_id: 284 cpu: 0 cycle[cpu]: 907 branch: 0 taken: 0 i: 0 dest_rgst: 25 i: 0 src_rgst: 55
fptr: 0x55b128c99d60 IP is: 4010b3 fence: 0 rdtsc: 0 instr_id: 285 cpu: 0 cycle[cpu]: 907 branch: 1 taken: 1 i: 0 dest_rgst: 26 i: 0 src_rgst: 26 i: 1 src_rgst: 25
 Retiring instr_id: 111 ip: 4198538 cpu: 0 current_core_cycle[cpu]: 907 fence: 0
 Retiring instr_id: 112 ip: 4198540 cpu: 0 current_core_cycle[cpu]: 907 fence: 0
 Retiring instr_id: 113 ip: 4198543 cpu: 0 current_core_cycle[cpu]: 907 fence: 0
 Retiring instr_id: 114 ip: 4198546 cpu: 0 current_core_cycle[cpu]: 907 fence: 0
fptr: 0x55b128c99d60 IP is: 401070 fence: 0 rdtsc: 0 instr_id: 286 cpu: 0 cycle[cpu]: 908 branch: 0 taken: 0 i: 0 dest_rgst: 55 i: 0 src_rgst: 54
fptr: 0x55b128c99d60 IP is: 401072 fence: 0 rdtsc: 0 instr_id: 287 cpu: 0 cycle[cpu]: 908 branch: 0 taken: 0 i: 0 dest_rgst: 55 i: 1 dest_rgst: 25 i: 0 src_rgst: 55
fptr: 0x55b128c99d60 IP is: 401075 fence: 0 rdtsc: 0 instr_id: 288 cpu: 0 cycle[cpu]: 908 branch: 0 taken: 0 i: 0 dest_rgst: 54 i: 1 dest_rgst: 25 i: 0 src_rgst: 54 i: 1 src_rgst: 55
fptr: 0x55b128c99d60 IP is: 401077 fence: 0 rdtsc: 0 instr_id: 289 cpu: 0 cycle[cpu]: 908 branch: 0 taken: 0 i: 0 dest_rgst: 54 i: 1 dest_rgst: 25 i: 0 src_rgst: 54
 Retiring instr_id: 115 ip: 4198550 cpu: 0 current_core_cycle[cpu]: 908 fence: 0
 Retiring instr_id: 116 ip: 4198553 cpu: 0 current_core_cycle[cpu]: 908 fence: 0
 Retiring instr_id: 117 ip: 4198555 cpu: 0 current_core_cycle[cpu]: 908 fence: 0
 Retiring instr_id: 118 ip: 4198558 cpu: 0 current_core_cycle[cpu]: 908 fence: 0
fptr: 0x55b128c99d60 IP is: 40107a fence: 0 rdtsc: 0 instr_id: 290 cpu: 0 cycle[cpu]: 909 branch: 0 taken: 0 i: 0 dest_rgst: 54 i: 1 dest_rgst: 25 i: 0 src_rgst: 54 i: 1 src_rgst: 55
fptr: 0x55b128c99d60 IP is: 40107c fence: 0 rdtsc: 0 instr_id: 291 cpu: 0 cycle[cpu]: 909 branch: 0 taken: 0 i: 0 dest_rgst: 54 i: 1 dest_rgst: 25 i: 0 src_rgst: 54
fptr: 0x55b128c99d60 IP is: 40107f fence: 0 rdtsc: 0 instr_id: 292 cpu: 0 cycle[cpu]: 909 branch: 0 taken: 0 dest_mem: 40c2dc i: 0 src_rgst: 4 i: 1 src_rgst: 33
fptr: 0x55b128c99d60 IP is: 401081 fence: 0 rdtsc: 0 instr_id: 293 cpu: 0 cycle[cpu]: 909 branch: 0 taken: 0 i: 0 dest_rgst: 4 i: 1 dest_rgst: 25 i: 0 src_rgst: 4
 Retiring instr_id: 119 ip: 4198560 cpu: 0 current_core_cycle[cpu]: 909 fence: 0
fptr: 0x55b128c99d60 IP is: 401085 fence: 0 rdtsc: 0 instr_id: 294 cpu: 0 cycle[cpu]: 910 branch: 0 taken: 0 i: 0 dest_rgst: 55
fptr: 0x55b128c99d60 IP is: 40108a fence: 0 rdtsc: 0 instr_id: 295 cpu: 0 cycle[cpu]: 910 branch: 0 taken: 0 i: 0 dest_rgst: 25 i: 0 src_rgst: 56
fptr: 0x55b128c99d60 IP is: 40108c fence: 0 rdtsc: 0 instr_id: 296 cpu: 0 cycle[cpu]: 910 branch: 0 taken: 0 i: 0 dest_rgst: 54 i: 0 src_rgst: 64
fptr: 0x55b128c99d60 IP is: 40108f fence: 0 rdtsc: 0 instr_id: 297 cpu: 0 cycle[cpu]: 910 branch: 0 taken: 0 i: 0 dest_rgst: 54 i: 0 src_rgst: 56 i: 1 src_rgst: 25
 Retiring instr_id: 120 ip: 4198566 cpu: 0 current_core_cycle[cpu]: 910 fence: 0
fptr: 0x55b128c99d60 IP is: 401092 fence: 0 rdtsc: 0 instr_id: 298 cpu: 0 cycle[cpu]: 911 branch: 0 taken: 0 i: 0 dest_rgst: 55 i: 0 src_rgst: 61 i: 1 src_rgst: 25
fptr: 0x55b128c99d60 IP is: 401096 fence: 0 rdtsc: 0 instr_id: 299 cpu: 0 cycle[cpu]: 911 branch: 0 taken: 0 i: 0 dest_rgst: 25 i: 0 src_rgst: 4 i: 1 src_rgst: 13
fptr: 0x55b128c99d60 IP is: 401099 fence: 0 rdtsc: 0 instr_id: 300 cpu: 0 cycle[cpu]: 911 branch: 1 taken: 0 i: 0 dest_rgst: 26 i: 0 src_rgst: 26 i: 1 src_rgst: 25
fptr: 0x55b128c99d60 IP is: 40109b fence: 0 rdtsc: 0 instr_id: 301 cpu: 0 cycle[cpu]: 911 branch: 0 taken: 0 i: 0 dest_rgst: 55 i: 0 src_rgst: 3 i: 1 src_rgst: 4
fptr: 0x55b128c99d60 IP is: 40109e fence: 0 rdtsc: 0 instr_id: 302 cpu: 0 cycle[cpu]: 912 branch: 0 taken: 0 i: 0 dest_rgst: 56 i: 0 src_rgst: 54
fptr: 0x55b128c99d60 IP is: 4010a0 fence: 0 rdtsc: 0 instr_id: 303 cpu: 0 cycle[cpu]: 912 branch: 0 taken: 0 i: 0 dest_rgst: 55 i: 1 dest_rgst: 25 i: 0 src_rgst: 55
fptr: 0x55b128c99d60 IP is: 4010a6 fence: 0 rdtsc: 0 instr_id: 304 cpu: 0 cycle[cpu]: 912 branch: 0 taken: 0 i: 0 dest_rgst: 56 i: 1 dest_rgst: 25 i: 0 src_rgst: 56
fptr: 0x55b128c99d60 IP is: 4010a9 fence: 0 rdtsc: 0 instr_id: 305 cpu: 0 cycle[cpu]: 912 branch: 0 taken: 0 i: 0 dest_rgst: 56 i: 1 dest_rgst: 25 i: 0 src_rgst: 56 i: 1 src_rgst: 54
 Retiring instr_id: 121 ip: 4198569 cpu: 0 current_core_cycle[cpu]: 912 fence: 0
fptr: 0x55b128c99d60 IP is: 4010ab fence: 0 rdtsc: 0 instr_id: 306 cpu: 0 cycle[cpu]: 913 branch: 0 taken: 0 i: 0 dest_rgst: 56 i: 1 dest_rgst: 25 i: 0 src_rgst: 56
fptr: 0x55b128c99d60 IP is: 4010ad fence: 0 rdtsc: 0 instr_id: 307 cpu: 0 cycle[cpu]: 913 branch: 0 taken: 0 i: 0 dest_rgst: 25 i: 0 src_rgst: 55
fptr: 0x55b128c99d60 IP is: 4010b3 fence: 0 rdtsc: 0 instr_id: 308 cpu: 0 cycle[cpu]: 913 branch: 1 taken: 1 i: 0 dest_rgst: 26 i: 0 src_rgst: 26 i: 1 src_rgst: 25
fptr: 0x55b128c99d60 IP is: 401070 fence: 0 rdtsc: 0 instr_id: 309 cpu: 0 cycle[cpu]: 914 branch: 0 taken: 0 i: 0 dest_rgst: 55 i: 0 src_rgst: 54
fptr: 0x55b128c99d60 IP is: 401072 fence: 0 rdtsc: 0 instr_id: 310 cpu: 0 cycle[cpu]: 914 branch: 0 taken: 0 i: 0 dest_rgst: 55 i: 1 dest_rgst: 25 i: 0 src_rgst: 55
fptr: 0x55b128c99d60 IP is: 401075 fence: 0 rdtsc: 0 instr_id: 311 cpu: 0 cycle[cpu]: 914 branch: 0 taken: 0 i: 0 dest_rgst: 54 i: 1 dest_rgst: 25 i: 0 src_rgst: 54 i: 1 src_rgst: 55
fptr: 0x55b128c99d60 IP is: 401077 fence: 0 rdtsc: 0 instr_id: 312 cpu: 0 cycle[cpu]: 914 branch: 0 taken: 0 i: 0 dest_rgst: 54 i: 1 dest_rgst: 25 i: 0 src_rgst: 54
 Retiring instr_id: 122 ip: 4198571 cpu: 0 current_core_cycle[cpu]: 914 fence: 0
 Retiring instr_id: 123 ip: 4198573 cpu: 0 current_core_cycle[cpu]: 914 fence: 0
 Retiring instr_id: 124 ip: 4198579 cpu: 0 current_core_cycle[cpu]: 914 fence: 0
 Retiring instr_id: 125 ip: 4198512 cpu: 0 current_core_cycle[cpu]: 914 fence: 0
fptr: 0x55b128c99d60 IP is: 40107a fence: 0 rdtsc: 0 instr_id: 313 cpu: 0 cycle[cpu]: 915 branch: 0 taken: 0 i: 0 dest_rgst: 54 i: 1 dest_rgst: 25 i: 0 src_rgst: 54 i: 1 src_rgst: 55
fptr: 0x55b128c99d60 IP is: 40107c fence: 0 rdtsc: 0 instr_id: 314 cpu: 0 cycle[cpu]: 915 branch: 0 taken: 0 i: 0 dest_rgst: 54 i: 1 dest_rgst: 25 i: 0 src_rgst: 54
fptr: 0x55b128c99d60 IP is: 40107f fence: 0 rdtsc: 0 instr_id: 315 cpu: 0 cycle[cpu]: 915 branch: 0 taken: 0 dest_mem: 40c2dd i: 0 src_rgst: 4 i: 1 src_rgst: 33
fptr: 0x55b128c99d60 IP is: 401081 fence: 0 rdtsc: 0 instr_id: 316 cpu: 0 cycle[cpu]: 915 branch: 0 taken: 0 i: 0 dest_rgst: 4 i: 1 dest_rgst: 25 i: 0 src_rgst: 4
 Retiring instr_id: 126 ip: 4198514 cpu: 0 current_core_cycle[cpu]: 915 fence: 0
 Retiring instr_id: 127 ip: 4198517 cpu: 0 current_core_cycle[cpu]: 915 fence: 0
 Retiring instr_id: 128 ip: 4198519 cpu: 0 current_core_cycle[cpu]: 915 fence: 0
fptr: 0x55b128c99d60 IP is: 401085 fence: 0 rdtsc: 0 instr_id: 317 cpu: 0 cycle[cpu]: 916 branch: 0 taken: 0 i: 0 dest_rgst: 55
fptr: 0x55b128c99d60 IP is: 40108a fence: 0 rdtsc: 0 instr_id: 318 cpu: 0 cycle[cpu]: 916 branch: 0 taken: 0 i: 0 dest_rgst: 25 i: 0 src_rgst: 56
fptr: 0x55b128c99d60 IP is: 40108c fence: 0 rdtsc: 0 instr_id: 319 cpu: 0 cycle[cpu]: 916 branch: 0 taken: 0 i: 0 dest_rgst: 54 i: 0 src_rgst: 64
fptr: 0x55b128c99d60 IP is: 40108f fence: 0 rdtsc: 0 instr_id: 320 cpu: 0 cycle[cpu]: 916 branch: 0 taken: 0 i: 0 dest_rgst: 54 i: 0 src_rgst: 56 i: 1 src_rgst: 25
 Retiring instr_id: 129 ip: 4198522 cpu: 0 current_core_cycle[cpu]: 916 fence: 0
fptr: 0x55b128c99d60 IP is: 401092 fence: 0 rdtsc: 0 instr_id: 321 cpu: 0 cycle[cpu]: 917 branch: 0 taken: 0 i: 0 dest_rgst: 55 i: 0 src_rgst: 61 i: 1 src_rgst: 25
fptr: 0x55b128c99d60 IP is: 401096 fence: 0 rdtsc: 0 instr_id: 322 cpu: 0 cycle[cpu]: 917 branch: 0 taken: 0 i: 0 dest_rgst: 25 i: 0 src_rgst: 4 i: 1 src_rgst: 13
fptr: 0x55b128c99d60 IP is: 401099 fence: 0 rdtsc: 0 instr_id: 323 cpu: 0 cycle[cpu]: 917 branch: 1 taken: 0 i: 0 dest_rgst: 26 i: 0 src_rgst: 26 i: 1 src_rgst: 25
fptr: 0x55b128c99d60 IP is: 40109b fence: 0 rdtsc: 0 instr_id: 324 cpu: 0 cycle[cpu]: 917 branch: 0 taken: 0 i: 0 dest_rgst: 55 i: 0 src_rgst: 3 i: 1 src_rgst: 4
fptr: 0x55b128c99d60 IP is: 40109e fence: 0 rdtsc: 0 instr_id: 325 cpu: 0 cycle[cpu]: 918 branch: 0 taken: 0 i: 0 dest_rgst: 56 i: 0 src_rgst: 54
fptr: 0x55b128c99d60 IP is: 4010a0 fence: 0 rdtsc: 0 instr_id: 326 cpu: 0 cycle[cpu]: 918 branch: 0 taken: 0 i: 0 dest_rgst: 55 i: 1 dest_rgst: 25 i: 0 src_rgst: 55
fptr: 0x55b128c99d60 IP is: 4010a6 fence: 0 rdtsc: 0 instr_id: 327 cpu: 0 cycle[cpu]: 918 branch: 0 taken: 0 i: 0 dest_rgst: 56 i: 1 dest_rgst: 25 i: 0 src_rgst: 56
fptr: 0x55b128c99d60 IP is: 4010a9 fence: 0 rdtsc: 0 instr_id: 328 cpu: 0 cycle[cpu]: 918 branch: 0 taken: 0 i: 0 dest_rgst: 56 i: 1 dest_rgst: 25 i: 0 src_rgst: 56 i: 1 src_rgst: 54
 Retiring instr_id: 130 ip: 4198524 cpu: 0 current_core_cycle[cpu]: 918 fence: 0
 Retiring instr_id: 131 ip: 4198527 cpu: 0 current_core_cycle[cpu]: 918 fence: 0
 Retiring instr_id: 132 ip: 4198529 cpu: 0 current_core_cycle[cpu]: 918 fence: 0
 Retiring instr_id: 133 ip: 4198533 cpu: 0 current_core_cycle[cpu]: 918 fence: 0
fptr: 0x55b128c99d60 IP is: 4010ab fence: 0 rdtsc: 0 instr_id: 329 cpu: 0 cycle[cpu]: 919 branch: 0 taken: 0 i: 0 dest_rgst: 56 i: 1 dest_rgst: 25 i: 0 src_rgst: 56
fptr: 0x55b128c99d60 IP is: 4010ad fence: 0 rdtsc: 0 instr_id: 330 cpu: 0 cycle[cpu]: 919 branch: 0 taken: 0 i: 0 dest_rgst: 25 i: 0 src_rgst: 55
fptr: 0x55b128c99d60 IP is: 4010b3 fence: 0 rdtsc: 0 instr_id: 331 cpu: 0 cycle[cpu]: 919 branch: 1 taken: 1 i: 0 dest_rgst: 26 i: 0 src_rgst: 26 i: 1 src_rgst: 25
 Retiring instr_id: 134 ip: 4198538 cpu: 0 current_core_cycle[cpu]: 919 fence: 0
 Retiring instr_id: 135 ip: 4198540 cpu: 0 current_core_cycle[cpu]: 919 fence: 0
 Retiring instr_id: 136 ip: 4198543 cpu: 0 current_core_cycle[cpu]: 919 fence: 0
 Retiring instr_id: 137 ip: 4198546 cpu: 0 current_core_cycle[cpu]: 919 fence: 0
fptr: 0x55b128c99d60 IP is: 401070 fence: 0 rdtsc: 0 instr_id: 332 cpu: 0 cycle[cpu]: 920 branch: 0 taken: 0 i: 0 dest_rgst: 55 i: 0 src_rgst: 54
fptr: 0x55b128c99d60 IP is: 401072 fence: 0 rdtsc: 0 instr_id: 333 cpu: 0 cycle[cpu]: 920 branch: 0 taken: 0 i: 0 dest_rgst: 55 i: 1 dest_rgst: 25 i: 0 src_rgst: 55
fptr: 0x55b128c99d60 IP is: 401075 fence: 0 rdtsc: 0 instr_id: 334 cpu: 0 cycle[cpu]: 920 branch: 0 taken: 0 i: 0 dest_rgst: 54 i: 1 dest_rgst: 25 i: 0 src_rgst: 54 i: 1 src_rgst: 55
fptr: 0x55b128c99d60 IP is: 401077 fence: 0 rdtsc: 0 instr_id: 335 cpu: 0 cycle[cpu]: 920 branch: 0 taken: 0 i: 0 dest_rgst: 54 i: 1 dest_rgst: 25 i: 0 src_rgst: 54
 Retiring instr_id: 138 ip: 4198550 cpu: 0 current_core_cycle[cpu]: 920 fence: 0
 Retiring instr_id: 139 ip: 4198553 cpu: 0 current_core_cycle[cpu]: 920 fence: 0
 Retiring instr_id: 140 ip: 4198555 cpu: 0 current_core_cycle[cpu]: 920 fence: 0
 Retiring instr_id: 141 ip: 4198558 cpu: 0 current_core_cycle[cpu]: 920 fence: 0
fptr: 0x55b128c99d60 IP is: 40107a fence: 0 rdtsc: 0 instr_id: 336 cpu: 0 cycle[cpu]: 921 branch: 0 taken: 0 i: 0 dest_rgst: 54 i: 1 dest_rgst: 25 i: 0 src_rgst: 54 i: 1 src_rgst: 55
fptr: 0x55b128c99d60 IP is: 40107c fence: 0 rdtsc: 0 instr_id: 337 cpu: 0 cycle[cpu]: 921 branch: 0 taken: 0 i: 0 dest_rgst: 54 i: 1 dest_rgst: 25 i: 0 src_rgst: 54
fptr: 0x55b128c99d60 IP is: 40107f fence: 0 rdtsc: 0 instr_id: 338 cpu: 0 cycle[cpu]: 921 branch: 0 taken: 0 dest_mem: 40c2de i: 0 src_rgst: 4 i: 1 src_rgst: 33
fptr: 0x55b128c99d60 IP is: 401081 fence: 0 rdtsc: 0 instr_id: 339 cpu: 0 cycle[cpu]: 921 branch: 0 taken: 0 i: 0 dest_rgst: 4 i: 1 dest_rgst: 25 i: 0 src_rgst: 4
 Retiring instr_id: 142 ip: 4198560 cpu: 0 current_core_cycle[cpu]: 921 fence: 0
fptr: 0x55b128c99d60 IP is: 401085 fence: 0 rdtsc: 0 instr_id: 340 cpu: 0 cycle[cpu]: 922 branch: 0 taken: 0 i: 0 dest_rgst: 55
fptr: 0x55b128c99d60 IP is: 40108a fence: 0 rdtsc: 0 instr_id: 341 cpu: 0 cycle[cpu]: 922 branch: 0 taken: 0 i: 0 dest_rgst: 25 i: 0 src_rgst: 56
fptr: 0x55b128c99d60 IP is: 40108c fence: 0 rdtsc: 0 instr_id: 342 cpu: 0 cycle[cpu]: 922 branch: 0 taken: 0 i: 0 dest_rgst: 54 i: 0 src_rgst: 64
fptr: 0x55b128c99d60 IP is: 40108f fence: 0 rdtsc: 0 instr_id: 343 cpu: 0 cycle[cpu]: 922 branch: 0 taken: 0 i: 0 dest_rgst: 54 i: 0 src_rgst: 56 i: 1 src_rgst: 25
 Retiring instr_id: 143 ip: 4198566 cpu: 0 current_core_cycle[cpu]: 922 fence: 0
fptr: 0x55b128c99d60 IP is: 401092 fence: 0 rdtsc: 0 instr_id: 344 cpu: 0 cycle[cpu]: 923 branch: 0 taken: 0 i: 0 dest_rgst: 55 i: 0 src_rgst: 61 i: 1 src_rgst: 25
fptr: 0x55b128c99d60 IP is: 401096 fence: 0 rdtsc: 0 instr_id: 345 cpu: 0 cycle[cpu]: 923 branch: 0 taken: 0 i: 0 dest_rgst: 25 i: 0 src_rgst: 4 i: 1 src_rgst: 13
fptr: 0x55b128c99d60 IP is: 401099 fence: 0 rdtsc: 0 instr_id: 346 cpu: 0 cycle[cpu]: 923 branch: 1 taken: 0 i: 0 dest_rgst: 26 i: 0 src_rgst: 26 i: 1 src_rgst: 25
fptr: 0x55b128c99d60 IP is: 40109b fence: 0 rdtsc: 0 instr_id: 347 cpu: 0 cycle[cpu]: 923 branch: 0 taken: 0 i: 0 dest_rgst: 55 i: 0 src_rgst: 3 i: 1 src_rgst: 4
fptr: 0x55b128c99d60 IP is: 40109e fence: 0 rdtsc: 0 instr_id: 348 cpu: 0 cycle[cpu]: 924 branch: 0 taken: 0 i: 0 dest_rgst: 56 i: 0 src_rgst: 54
fptr: 0x55b128c99d60 IP is: 4010a0 fence: 0 rdtsc: 0 instr_id: 349 cpu: 0 cycle[cpu]: 924 branch: 0 taken: 0 i: 0 dest_rgst: 55 i: 1 dest_rgst: 25 i: 0 src_rgst: 55
fptr: 0x55b128c99d60 IP is: 4010a6 fence: 0 rdtsc: 0 instr_id: 350 cpu: 0 cycle[cpu]: 924 branch: 0 taken: 0 i: 0 dest_rgst: 56 i: 1 dest_rgst: 25 i: 0 src_rgst: 56
fptr: 0x55b128c99d60 IP is: 4010a9 fence: 0 rdtsc: 0 instr_id: 351 cpu: 0 cycle[cpu]: 924 branch: 0 taken: 0 i: 0 dest_rgst: 56 i: 1 dest_rgst: 25 i: 0 src_rgst: 56 i: 1 src_rgst: 54
 Retiring instr_id: 144 ip: 4198569 cpu: 0 current_core_cycle[cpu]: 924 fence: 0
fptr: 0x55b128c99d60 IP is: 4010ab fence: 0 rdtsc: 0 instr_id: 352 cpu: 0 cycle[cpu]: 925 branch: 0 taken: 0 i: 0 dest_rgst: 56 i: 1 dest_rgst: 25 i: 0 src_rgst: 56
fptr: 0x55b128c99d60 IP is: 4010ad fence: 0 rdtsc: 0 instr_id: 353 cpu: 0 cycle[cpu]: 925 branch: 0 taken: 0 i: 0 dest_rgst: 25 i: 0 src_rgst: 55
fptr: 0x55b128c99d60 IP is: 4010b3 fence: 0 rdtsc: 0 instr_id: 354 cpu: 0 cycle[cpu]: 925 branch: 1 taken: 1 i: 0 dest_rgst: 26 i: 0 src_rgst: 26 i: 1 src_rgst: 25
fptr: 0x55b128c99d60 IP is: 401070 fence: 0 rdtsc: 0 instr_id: 355 cpu: 0 cycle[cpu]: 926 branch: 0 taken: 0 i: 0 dest_rgst: 55 i: 0 src_rgst: 54
fptr: 0x55b128c99d60 IP is: 401072 fence: 0 rdtsc: 0 instr_id: 356 cpu: 0 cycle[cpu]: 926 branch: 0 taken: 0 i: 0 dest_rgst: 55 i: 1 dest_rgst: 25 i: 0 src_rgst: 55
fptr: 0x55b128c99d60 IP is: 401075 fence: 0 rdtsc: 0 instr_id: 357 cpu: 0 cycle[cpu]: 926 branch: 0 taken: 0 i: 0 dest_rgst: 54 i: 1 dest_rgst: 25 i: 0 src_rgst: 54 i: 1 src_rgst: 55
fptr: 0x55b128c99d60 IP is: 401077 fence: 0 rdtsc: 0 instr_id: 358 cpu: 0 cycle[cpu]: 926 branch: 0 taken: 0 i: 0 dest_rgst: 54 i: 1 dest_rgst: 25 i: 0 src_rgst: 54
 Retiring instr_id: 145 ip: 4198571 cpu: 0 current_core_cycle[cpu]: 926 fence: 0
 Retiring instr_id: 146 ip: 4198573 cpu: 0 current_core_cycle[cpu]: 926 fence: 0
 Retiring instr_id: 147 ip: 4198579 cpu: 0 current_core_cycle[cpu]: 926 fence: 0
 Retiring instr_id: 148 ip: 4198512 cpu: 0 current_core_cycle[cpu]: 926 fence: 0
fptr: 0x55b128c99d60 IP is: 40107a fence: 0 rdtsc: 0 instr_id: 359 cpu: 0 cycle[cpu]: 927 branch: 0 taken: 0 i: 0 dest_rgst: 54 i: 1 dest_rgst: 25 i: 0 src_rgst: 54 i: 1 src_rgst: 55
fptr: 0x55b128c99d60 IP is: 40107c fence: 0 rdtsc: 0 instr_id: 360 cpu: 0 cycle[cpu]: 927 branch: 0 taken: 0 i: 0 dest_rgst: 54 i: 1 dest_rgst: 25 i: 0 src_rgst: 54
fptr: 0x55b128c99d60 IP is: 40107f fence: 0 rdtsc: 0 instr_id: 361 cpu: 0 cycle[cpu]: 927 branch: 0 taken: 0 dest_mem: 40c2df i: 0 src_rgst: 4 i: 1 src_rgst: 33
fptr: 0x55b128c99d60 IP is: 401081 fence: 0 rdtsc: 0 instr_id: 362 cpu: 0 cycle[cpu]: 927 branch: 0 taken: 0 i: 0 dest_rgst: 4 i: 1 dest_rgst: 25 i: 0 src_rgst: 4
 Retiring instr_id: 149 ip: 4198514 cpu: 0 current_core_cycle[cpu]: 927 fence: 0
 Retiring instr_id: 150 ip: 4198517 cpu: 0 current_core_cycle[cpu]: 927 fence: 0
 Retiring instr_id: 151 ip: 4198519 cpu: 0 current_core_cycle[cpu]: 927 fence: 0
fptr: 0x55b128c99d60 IP is: 401085 fence: 0 rdtsc: 0 instr_id: 363 cpu: 0 cycle[cpu]: 928 branch: 0 taken: 0 i: 0 dest_rgst: 55
fptr: 0x55b128c99d60 IP is: 40108a fence: 0 rdtsc: 0 instr_id: 364 cpu: 0 cycle[cpu]: 928 branch: 0 taken: 0 i: 0 dest_rgst: 25 i: 0 src_rgst: 56
fptr: 0x55b128c99d60 IP is: 40108c fence: 0 rdtsc: 0 instr_id: 365 cpu: 0 cycle[cpu]: 928 branch: 0 taken: 0 i: 0 dest_rgst: 54 i: 0 src_rgst: 64
fptr: 0x55b128c99d60 IP is: 40108f fence: 0 rdtsc: 0 instr_id: 366 cpu: 0 cycle[cpu]: 928 branch: 0 taken: 0 i: 0 dest_rgst: 54 i: 0 src_rgst: 56 i: 1 src_rgst: 25
 Retiring instr_id: 152 ip: 4198522 cpu: 0 current_core_cycle[cpu]: 928 fence: 0
fptr: 0x55b128c99d60 IP is: 401092 fence: 0 rdtsc: 0 instr_id: 367 cpu: 0 cycle[cpu]: 929 branch: 0 taken: 0 i: 0 dest_rgst: 55 i: 0 src_rgst: 61 i: 1 src_rgst: 25
fptr: 0x55b128c99d60 IP is: 401096 fence: 0 rdtsc: 0 instr_id: 368 cpu: 0 cycle[cpu]: 929 branch: 0 taken: 0 i: 0 dest_rgst: 25 i: 0 src_rgst: 4 i: 1 src_rgst: 13
fptr: 0x55b128c99d60 IP is: 401099 fence: 0 rdtsc: 0 instr_id: 369 cpu: 0 cycle[cpu]: 929 branch: 1 taken: 0 i: 0 dest_rgst: 26 i: 0 src_rgst: 26 i: 1 src_rgst: 25
fptr: 0x55b128c99d60 IP is: 40109b fence: 0 rdtsc: 0 instr_id: 370 cpu: 0 cycle[cpu]: 929 branch: 0 taken: 0 i: 0 dest_rgst: 55 i: 0 src_rgst: 3 i: 1 src_rgst: 4
fptr: 0x55b128c99d60 IP is: 40109e fence: 0 rdtsc: 0 instr_id: 371 cpu: 0 cycle[cpu]: 930 branch: 0 taken: 0 i: 0 dest_rgst: 56 i: 0 src_rgst: 54
fptr: 0x55b128c99d60 IP is: 4010a0 fence: 0 rdtsc: 0 instr_id: 372 cpu: 0 cycle[cpu]: 930 branch: 0 taken: 0 i: 0 dest_rgst: 55 i: 1 dest_rgst: 25 i: 0 src_rgst: 55
fptr: 0x55b128c99d60 IP is: 4010a6 fence: 0 rdtsc: 0 instr_id: 373 cpu: 0 cycle[cpu]: 930 branch: 0 taken: 0 i: 0 dest_rgst: 56 i: 1 dest_rgst: 25 i: 0 src_rgst: 56
fptr: 0x55b128c99d60 IP is: 4010a9 fence: 0 rdtsc: 0 instr_id: 374 cpu: 0 cycle[cpu]: 930 branch: 0 taken: 0 i: 0 dest_rgst: 56 i: 1 dest_rgst: 25 i: 0 src_rgst: 56 i: 1 src_rgst: 54
 Retiring instr_id: 153 ip: 4198524 cpu: 0 current_core_cycle[cpu]: 930 fence: 0
 Retiring instr_id: 154 ip: 4198527 cpu: 0 current_core_cycle[cpu]: 930 fence: 0
 Retiring instr_id: 155 ip: 4198529 cpu: 0 current_core_cycle[cpu]: 930 fence: 0
 Retiring instr_id: 156 ip: 4198533 cpu: 0 current_core_cycle[cpu]: 930 fence: 0
fptr: 0x55b128c99d60 IP is: 4010ab fence: 0 rdtsc: 0 instr_id: 375 cpu: 0 cycle[cpu]: 931 branch: 0 taken: 0 i: 0 dest_rgst: 56 i: 1 dest_rgst: 25 i: 0 src_rgst: 56
fptr: 0x55b128c99d60 IP is: 4010ad fence: 0 rdtsc: 0 instr_id: 376 cpu: 0 cycle[cpu]: 931 branch: 0 taken: 0 i: 0 dest_rgst: 25 i: 0 src_rgst: 55
fptr: 0x55b128c99d60 IP is: 4010b3 fence: 0 rdtsc: 0 instr_id: 377 cpu: 0 cycle[cpu]: 931 branch: 1 taken: 1 i: 0 dest_rgst: 26 i: 0 src_rgst: 26 i: 1 src_rgst: 25
 Retiring instr_id: 157 ip: 4198538 cpu: 0 current_core_cycle[cpu]: 931 fence: 0
 Retiring instr_id: 158 ip: 4198540 cpu: 0 current_core_cycle[cpu]: 931 fence: 0
 Retiring instr_id: 159 ip: 4198543 cpu: 0 current_core_cycle[cpu]: 931 fence: 0
 Retiring instr_id: 160 ip: 4198546 cpu: 0 current_core_cycle[cpu]: 931 fence: 0
fptr: 0x55b128c99d60 IP is: 401070 fence: 0 rdtsc: 0 instr_id: 378 cpu: 0 cycle[cpu]: 932 branch: 0 taken: 0 i: 0 dest_rgst: 55 i: 0 src_rgst: 54
fptr: 0x55b128c99d60 IP is: 401072 fence: 0 rdtsc: 0 instr_id: 379 cpu: 0 cycle[cpu]: 932 branch: 0 taken: 0 i: 0 dest_rgst: 55 i: 1 dest_rgst: 25 i: 0 src_rgst: 55
fptr: 0x55b128c99d60 IP is: 401075 fence: 0 rdtsc: 0 instr_id: 380 cpu: 0 cycle[cpu]: 932 branch: 0 taken: 0 i: 0 dest_rgst: 54 i: 1 dest_rgst: 25 i: 0 src_rgst: 54 i: 1 src_rgst: 55
[...]
fptr: 0x55b128c99d60 IP is: 401148 fence: 0 rdtsc: 0 instr_id: 942 cpu: 0 cycle[cpu]: 3252 branch: 0 taken: 0 i: 0 dest_rgst: 10 i: 0 src_rgst: 10 src_mem: 40c2e8
fptr: 0x55b128c99d60 IP is: 40114b fence: 0 rdtsc: 0 instr_id: 943 cpu: 0 cycle[cpu]: 3253 branch: 0 taken: 0 dest_mem: 40c2c0 i: 0 src_rgst: 26 i: 1 src_rgst: 10
fptr: 0x55b128c99d60 IP is: 401152 fence: 0 rdtsc: 0 instr_id: 944 cpu: 0 cycle[cpu]: 3253 branch: 0 taken: 0 i: 0 dest_rgst: 26 dest_mem: 40c078 i: 1 dest_rgst: 6 i: 0 src_rgst: 13 i: 1 src_rgst: 26 i: 2 src_rgst: 6
fptr: 0x55b128c99d60 IP is: 401155 fence: 1 rdtsc: 0 instr_id: 945 cpu: 0 cycle[cpu]: 3253 branch: 0 taken: 0 i: 0 dest_rgst: 25 i: 0 src_rgst: 26 src_mem: 40c2c8
 Retiring instr_id: 929 ip: 4198675 cpu: 0 current_core_cycle[cpu]: 3257 fence: 1
 Retiring instr_id: 930 ip: 4198678 cpu: 0 current_core_cycle[cpu]: 3261 fence: 0
 Retiring instr_id: 931 ip: 4198679 cpu: 0 current_core_cycle[cpu]: 3268 fence: 0
 Retiring instr_id: 932 ip: 4198686 cpu: 0 current_core_cycle[cpu]: 3278 fence: 0
 Retiring instr_id: 933 ip: 4198694 cpu: 0 current_core_cycle[cpu]: 3280 fence: 0
 Retiring instr_id: 934 ip: 4198696 cpu: 0 current_core_cycle[cpu]: 3280 fence: 0
 Retiring instr_id: 935 ip: 4198700 cpu: 0 current_core_cycle[cpu]: 3282 fence: 0
 Retiring instr_id: 936 ip: 4198702 cpu: 0 current_core_cycle[cpu]: 3282 fence: 0
 Retiring instr_id: 937 ip: 4198705 cpu: 0 current_core_cycle[cpu]: 3282 fence: 0
 Retiring instr_id: 938 ip: 4198708 cpu: 0 current_core_cycle[cpu]: 3293 fence: 0
 Retiring instr_id: 939 ip: 4198716 cpu: 0 current_core_cycle[cpu]: 3293 fence: 0
 Retiring instr_id: 940 ip: 4198723 cpu: 0 current_core_cycle[cpu]: 3295 fence: 0
 Retiring instr_id: 941 ip: 4198725 cpu: 0 current_core_cycle[cpu]: 3295 fence: 0
 Retiring instr_id: 942 ip: 4198728 cpu: 0 current_core_cycle[cpu]: 3295 fence: 0
 Retiring instr_id: 943 ip: 4198731 cpu: 0 current_core_cycle[cpu]: 3304 fence: 0
 Retiring instr_id: 944 ip: 4198738 cpu: 0 current_core_cycle[cpu]: 3305 fence: 0
FIRST_FENCE: 542 Calculated LLC occupancy is : 2
FFFFFFFFence is removed for cpu: 0 ooo_cpu[i].num_retired: 945 fence_instr[i]: 945 core cycle: 3306 instr unique_id: 946
Tag LLC Valid blocks: 12 Dirty blocks: 0 Invalid blocks: 57332cpu 0 blocks  valid: 12 dirty: 0 cpu 1 blocks-> valid: 0 dirty: 0
Data LLC Valid blocks: 12 Dirty blocks: 0 Invalid blocks: 32756cpu 0 blocks-> valid: 12 dirty: 0 cpu 1 blocks-> valid: 0 dirty: 0
fptr: 0x55b128c99d60 IP is: 40115d fence: 0 rdtsc: 0 instr_id: 946 cpu: 0 cycle[cpu]: 3306 branch: 1 taken: 0 i: 0 dest_rgst: 26 i: 0 src_rgst: 26 i: 1 src_rgst: 25
fptr: 0x55b128c99d60 IP is: 40115f fence: 0 rdtsc: 0 instr_id: 947 cpu: 0 cycle[cpu]: 3306 branch: 0 taken: 0 i: 0 dest_rgst: 26 dest_mem: 40c078 i: 1 dest_rgst: 6 i: 0 src_rgst: 13 i: 1 src_rgst: 26 i: 2 src_rgst: 6
fptr: 0x55b128c99d60 IP is: 401162 fence: 1 rdtsc: 0 instr_id: 948 cpu: 0 cycle[cpu]: 3306 branch: 0 taken: 0
 Retiring instr_id: 945 ip: 4198741 cpu: 0 current_core_cycle[cpu]: 3316 fence: 1
 Retiring instr_id: 946 ip: 4198749 cpu: 0 current_core_cycle[cpu]: 3318 fence: 0
 Retiring instr_id: 947 ip: 4198751 cpu: 0 current_core_cycle[cpu]: 3327 fence: 0
 Retiring instr_id: 948 ip: 4198754 cpu: 0 current_core_cycle[cpu]: 3327 fence: 1
FIRST_FENCE: 542 Calculated LLC occupancy is : 2
FFFFFFFFence is removed for cpu: 0 ooo_cpu[i].num_retired: 949 fence_instr[i]: 948 core cycle: 3328 instr unique_id: 949
Tag LLC Valid blocks: 12 Dirty blocks: 0 Invalid blocks: 57332cpu 0 blocks  valid: 12 dirty: 0 cpu 1 blocks-> valid: 0 dirty: 0
Data LLC Valid blocks: 12 Dirty blocks: 0 Invalid blocks: 32756cpu 0 blocks-> valid: 12 dirty: 0 cpu 1 blocks-> valid: 0 dirty: 0
fptr: 0x55b128c99d60 IP is: 401163 fence: 0 rdtsc: 0 instr_id: 949 cpu: 0 cycle[cpu]: 3328 branch: 0 taken: 0 i: 0 dest_rgst: 25 dest_mem: 40c2c8 i: 0 src_rgst: 8 src_mem: 40c2c8
fptr: 0x55b128c99d60 IP is: 401166 fence: 0 rdtsc: 0 instr_id: 950 cpu: 0 cycle[cpu]: 3328 branch: 0 taken: 0 i: 0 dest_rgst: 25 i: 0 src_rgst: 8 src_mem: 40c2c8
fptr: 0x55b128c99d60 IP is: 401169 fence: 0 rdtsc: 0 instr_id: 951 cpu: 0 cycle[cpu]: 3328 branch: 1 taken: 1 i: 0 dest_rgst: 26 i: 0 src_rgst: 26 i: 1 src_rgst: 25
fptr: 0x55b128c99d60 IP is: 401110 fence: 0 rdtsc: 0 instr_id: 952 cpu: 0 cycle[cpu]: 3329 branch: 0 taken: 0 i: 0 dest_rgst: 26 dest_mem: 40c078 i: 1 dest_rgst: 6 i: 0 src_rgst: 13 i: 1 src_rgst: 26 i: 2 src_rgst: 6
fptr: 0x55b128c99d60 IP is: 401113 fence: 1 rdtsc: 0 instr_id: 953 cpu: 0 cycle[cpu]: 3329 branch: 0 taken: 0 i: 0 dest_rgst: 26 dest_mem: 40c078 i: 1 dest_rgst: 6 i: 0 src_rgst: 14 i: 1 src_rgst: 26 i: 2 src_rgst: 6
 Retiring instr_id: 949 ip: 4198755 cpu: 0 current_core_cycle[cpu]: 3343 fence: 0
 Retiring instr_id: 950 ip: 4198758 cpu: 0 current_core_cycle[cpu]: 3343 fence: 0
 Retiring instr_id: 951 ip: 4198761 cpu: 0 current_core_cycle[cpu]: 3343 fence: 0
 Retiring instr_id: 952 ip: 4198672 cpu: 0 current_core_cycle[cpu]: 3352 fence: 0
FIRST_FENCE: 542 Calculated LLC occupancy is : 2
FFFFFFFFence is removed for cpu: 0 ooo_cpu[i].num_retired: 953 fence_instr[i]: 953 core cycle: 3353 instr unique_id: 954
Tag LLC Valid blocks: 12 Dirty blocks: 0 Invalid blocks: 57332cpu 0 blocks  valid: 12 dirty: 0 cpu 1 blocks-> valid: 0 dirty: 0
Data LLC Valid blocks: 12 Dirty blocks: 0 Invalid blocks: 32756cpu 0 blocks-> valid: 12 dirty: 0 cpu 1 blocks-> valid: 0 dirty: 0
SSSSSSSS cpu 0 is on wait, TURN: 1 current core cycle: 3353 instr_unique_id: 954 num_retired:  953
fptr: 0x55b128c99d60 IP is: 401116 fence: 0 rdtsc: 0 instr_id: 954 cpu: 0 cycle[cpu]: 3353 branch: 0 taken: 0
cpu 0 is awakened from sleep
fptr: 0x55b128c99d60 IP is: 401117 fence: 0 rdtsc: 0 instr_id: 955 cpu: 0 cycle[cpu]: 3354 branch: 0 taken: 0 i: 0 dest_rgst: 10 i: 0 src_rgst: 26 src_mem: 40c2c8
fptr: 0x55b128c99d60 IP is: 40111e fence: 0 rdtsc: 0 instr_id: 956 cpu: 0 cycle[cpu]: 3354 branch: 0 taken: 0 i: 0 dest_rgst: 25 i: 0 src_rgst: 9 src_mem: 40c2e3 i: 1 src_rgst: 10
fptr: 0x55b128c99d60 IP is: 401126 fence: 0 rdtsc: 0 instr_id: 957 cpu: 0 cycle[cpu]: 3354 branch: 1 taken: 0 i: 0 dest_rgst: 26 i: 0 src_rgst: 26 i: 1 src_rgst: 25
fptr: 0x55b128c99d60 IP is: 401128 fence: 0 rdtsc: 0 instr_id: 958 cpu: 0 cycle[cpu]: 3354 branch: 0 taken: 0 i: 0 dest_rgst: 25 i: 0 src_rgst: 10
fptr: 0x55b128c99d60 IP is: 40112c fence: 0 rdtsc: 0 instr_id: 959 cpu: 0 cycle[cpu]: 3355 branch: 1 taken: 0 i: 0 dest_rgst: 26 i: 0 src_rgst: 26 i: 1 src_rgst: 25
fptr: 0x55b128c99d60 IP is: 40112e fence: 0 rdtsc: 0 instr_id: 960 cpu: 0 cycle[cpu]: 3355 branch: 0 taken: 0 i: 0 dest_rgst: 10 i: 0 src_rgst: 4
fptr: 0x55b128c99d60 IP is: 401131 fence: 0 rdtsc: 0 instr_id: 961 cpu: 0 cycle[cpu]: 3355 branch: 0 taken: 0 i: 0 dest_rgst: 10 i: 0 src_rgst: 10 src_mem: 40c100
fptr: 0x55b128c99d60 IP is: 401134 fence: 0 rdtsc: 0 instr_id: 962 cpu: 0 cycle[cpu]: 3355 branch: 0 taken: 0 i: 0 dest_rgst: 25 i: 0 src_rgst: 26 src_mem: 40c2c8
fptr: 0x55b128c99d60 IP is: 40113c fence: 0 rdtsc: 0 instr_id: 963 cpu: 0 cycle[cpu]: 3356 branch: 0 taken: 0 dest_mem: 40c2c0 i: 0 src_rgst: 26 i: 1 src_rgst: 10
fptr: 0x55b128c99d60 IP is: 401143 fence: 0 rdtsc: 0 instr_id: 964 cpu: 0 cycle[cpu]: 3356 branch: 1 taken: 1 i: 0 dest_rgst: 26 i: 0 src_rgst: 26 i: 1 src_rgst: 25
 Retiring instr_id: 953 ip: 4198675 cpu: 0 current_core_cycle[cpu]: 3361 fence: 1
 Retiring instr_id: 954 ip: 4198678 cpu: 0 current_core_cycle[cpu]: 3365 fence: 0
 Retiring instr_id: 955 ip: 4198679 cpu: 0 current_core_cycle[cpu]: 3372 fence: 0
 Retiring instr_id: 956 ip: 4198686 cpu: 0 current_core_cycle[cpu]: 3383 fence: 0
 Retiring instr_id: 957 ip: 4198694 cpu: 0 current_core_cycle[cpu]: 3385 fence: 0
 Retiring instr_id: 958 ip: 4198696 cpu: 0 current_core_cycle[cpu]: 3385 fence: 0
 Retiring instr_id: 959 ip: 4198700 cpu: 0 current_core_cycle[cpu]: 3387 fence: 0
 Retiring instr_id: 960 ip: 4198702 cpu: 0 current_core_cycle[cpu]: 3387 fence: 0
 Retiring instr_id: 961 ip: 4198705 cpu: 0 current_core_cycle[cpu]: 3387 fence: 0
 Retiring instr_id: 962 ip: 4198708 cpu: 0 current_core_cycle[cpu]: 3398 fence: 0
 Retiring instr_id: 963 ip: 4198716 cpu: 0 current_core_cycle[cpu]: 3398 fence: 0
 Retiring instr_id: 964 ip: 4198723 cpu: 0 current_core_cycle[cpu]: 3400 fence: 0
fptr: 0x55b128c99d60 IP is: 401152 fence: 0 rdtsc: 0 instr_id: 965 cpu: 0 cycle[cpu]: 3401 branch: 0 taken: 0 i: 0 dest_rgst: 26 dest_mem: 40c078 i: 1 dest_rgst: 6 i: 0 src_rgst: 13 i: 1 src_rgst: 26 i: 2 src_rgst: 6
fptr: 0x55b128c99d60 IP is: 401155 fence: 1 rdtsc: 0 instr_id: 966 cpu: 0 cycle[cpu]: 3401 branch: 0 taken: 0 i: 0 dest_rgst: 25 i: 0 src_rgst: 26 src_mem: 40c2c8
 Retiring instr_id: 965 ip: 4198738 cpu: 0 current_core_cycle[cpu]: 3414 fence: 0
FIRST_FENCE: 542 Calculated LLC occupancy is : 2
FFFFFFFFence is removed for cpu: 0 ooo_cpu[i].num_retired: 966 fence_instr[i]: 966 core cycle: 3415 instr unique_id: 967
Tag LLC Valid blocks: 12 Dirty blocks: 0 Invalid blocks: 57332cpu 0 blocks  valid: 12 dirty: 0 cpu 1 blocks-> valid: 0 dirty: 0
Data LLC Valid blocks: 12 Dirty blocks: 0 Invalid blocks: 32756cpu 0 blocks-> valid: 12 dirty: 0 cpu 1 blocks-> valid: 0 dirty: 0
fptr: 0x55b128c99d60 IP is: 40115d fence: 0 rdtsc: 0 instr_id: 967 cpu: 0 cycle[cpu]: 3415 branch: 1 taken: 0 i: 0 dest_rgst: 26 i: 0 src_rgst: 26 i: 1 src_rgst: 25
fptr: 0x55b128c99d60 IP is: 40115f fence: 0 rdtsc: 0 instr_id: 968 cpu: 0 cycle[cpu]: 3415 branch: 0 taken: 0 i: 0 dest_rgst: 26 dest_mem: 40c078 i: 1 dest_rgst: 6 i: 0 src_rgst: 13 i: 1 src_rgst: 26 i: 2 src_rgst: 6
fptr: 0x55b128c99d60 IP is: 401162 fence: 1 rdtsc: 0 instr_id: 969 cpu: 0 cycle[cpu]: 3415 branch: 0 taken: 0
 Retiring instr_id: 966 ip: 4198741 cpu: 0 current_core_cycle[cpu]: 3425 fence: 1
 Retiring instr_id: 967 ip: 4198749 cpu: 0 current_core_cycle[cpu]: 3427 fence: 0
 Retiring instr_id: 968 ip: 4198751 cpu: 0 current_core_cycle[cpu]: 3436 fence: 0
 Retiring instr_id: 969 ip: 4198754 cpu: 0 current_core_cycle[cpu]: 3436 fence: 1
FIRST_FENCE: 542 Calculated LLC occupancy is : 2
FFFFFFFFence is removed for cpu: 0 ooo_cpu[i].num_retired: 970 fence_instr[i]: 969 core cycle: 3437 instr unique_id: 970
Tag LLC Valid blocks: 12 Dirty blocks: 0 Invalid blocks: 57332cpu 0 blocks  valid: 12 dirty: 0 cpu 1 blocks-> valid: 0 dirty: 0
Data LLC Valid blocks: 12 Dirty blocks: 0 Invalid blocks: 32756cpu 0 blocks-> valid: 12 dirty: 0 cpu 1 blocks-> valid: 0 dirty: 0
fptr: 0x55b128c99d60 IP is: 401163 fence: 0 rdtsc: 0 instr_id: 970 cpu: 0 cycle[cpu]: 3437 branch: 0 taken: 0 i: 0 dest_rgst: 25 dest_mem: 40c2c8 i: 0 src_rgst: 8 src_mem: 40c2c8
fptr: 0x55b128c99d60 IP is: 401166 fence: 0 rdtsc: 0 instr_id: 971 cpu: 0 cycle[cpu]: 3437 branch: 0 taken: 0 i: 0 dest_rgst: 25 i: 0 src_rgst: 8 src_mem: 40c2c8
fptr: 0x55b128c99d60 IP is: 401169 fence: 0 rdtsc: 0 instr_id: 972 cpu: 0 cycle[cpu]: 3437 branch: 1 taken: 1 i: 0 dest_rgst: 26 i: 0 src_rgst: 26 i: 1 src_rgst: 25
fptr: 0x55b128c99d60 IP is: 401110 fence: 0 rdtsc: 0 instr_id: 973 cpu: 0 cycle[cpu]: 3438 branch: 0 taken: 0 i: 0 dest_rgst: 26 dest_mem: 40c078 i: 1 dest_rgst: 6 i: 0 src_rgst: 13 i: 1 src_rgst: 26 i: 2 src_rgst: 6
fptr: 0x55b128c99d60 IP is: 401113 fence: 1 rdtsc: 0 instr_id: 974 cpu: 0 cycle[cpu]: 3438 branch: 0 taken: 0 i: 0 dest_rgst: 26 dest_mem: 40c078 i: 1 dest_rgst: 6 i: 0 src_rgst: 14 i: 1 src_rgst: 26 i: 2 src_rgst: 6
 Retiring instr_id: 970 ip: 4198755 cpu: 0 current_core_cycle[cpu]: 3452 fence: 0
 Retiring instr_id: 971 ip: 4198758 cpu: 0 current_core_cycle[cpu]: 3452 fence: 0
 Retiring instr_id: 972 ip: 4198761 cpu: 0 current_core_cycle[cpu]: 3452 fence: 0
 Retiring instr_id: 973 ip: 4198672 cpu: 0 current_core_cycle[cpu]: 3461 fence: 0
FIRST_FENCE: 542 Calculated LLC occupancy is : 2
FFFFFFFFence is removed for cpu: 0 ooo_cpu[i].num_retired: 974 fence_instr[i]: 974 core cycle: 3462 instr unique_id: 975
Tag LLC Valid blocks: 12 Dirty blocks: 0 Invalid blocks: 57332cpu 0 blocks  valid: 12 dirty: 0 cpu 1 blocks-> valid: 0 dirty: 0
Data LLC Valid blocks: 12 Dirty blocks: 0 Invalid blocks: 32756cpu 0 blocks-> valid: 12 dirty: 0 cpu 1 blocks-> valid: 0 dirty: 0
SSSSSSSS cpu 0 is on wait, TURN: 1 current core cycle: 3462 instr_unique_id: 975 num_retired:  974
fptr: 0x55b128c99d60 IP is: 401116 fence: 0 rdtsc: 0 instr_id: 975 cpu: 0 cycle[cpu]: 3462 branch: 0 taken: 0
cpu 0 is awakened from sleep
fptr: 0x55b128c99d60 IP is: 401117 fence: 0 rdtsc: 0 instr_id: 976 cpu: 0 cycle[cpu]: 3463 branch: 0 taken: 0 i: 0 dest_rgst: 10 i: 0 src_rgst: 26 src_mem: 40c2c8
fptr: 0x55b128c99d60 IP is: 40111e fence: 0 rdtsc: 0 instr_id: 977 cpu: 0 cycle[cpu]: 3463 branch: 0 taken: 0 i: 0 dest_rgst: 25 i: 0 src_rgst: 9 src_mem: 40c2e4 i: 1 src_rgst: 10
fptr: 0x55b128c99d60 IP is: 401126 fence: 0 rdtsc: 0 instr_id: 978 cpu: 0 cycle[cpu]: 3463 branch: 1 taken: 0 i: 0 dest_rgst: 26 i: 0 src_rgst: 26 i: 1 src_rgst: 25
fptr: 0x55b128c99d60 IP is: 401128 fence: 0 rdtsc: 0 instr_id: 979 cpu: 0 cycle[cpu]: 3463 branch: 0 taken: 0 i: 0 dest_rgst: 25 i: 0 src_rgst: 10
fptr: 0x55b128c99d60 IP is: 40112c fence: 0 rdtsc: 0 instr_id: 980 cpu: 0 cycle[cpu]: 3464 branch: 1 taken: 1 i: 0 dest_rgst: 26 i: 0 src_rgst: 26 i: 1 src_rgst: 25
 Retiring instr_id: 974 ip: 4198675 cpu: 0 current_core_cycle[cpu]: 3470 fence: 1
 Retiring instr_id: 975 ip: 4198678 cpu: 0 current_core_cycle[cpu]: 3474 fence: 0
 Retiring instr_id: 976 ip: 4198679 cpu: 0 current_core_cycle[cpu]: 3481 fence: 0
 Retiring instr_id: 977 ip: 4198686 cpu: 0 current_core_cycle[cpu]: 3492 fence: 0
 Retiring instr_id: 978 ip: 4198694 cpu: 0 current_core_cycle[cpu]: 3494 fence: 0
 Retiring instr_id: 979 ip: 4198696 cpu: 0 current_core_cycle[cpu]: 3494 fence: 0
 Retiring instr_id: 980 ip: 4198700 cpu: 0 current_core_cycle[cpu]: 3496 fence: 0
fptr: 0x55b128c99d60 IP is: 401180 fence: 0 rdtsc: 0 instr_id: 981 cpu: 0 cycle[cpu]: 3497 branch: 0 taken: 0 i: 0 dest_rgst: 10 i: 0 src_rgst: 12
fptr: 0x55b128c99d60 IP is: 401183 fence: 0 rdtsc: 0 instr_id: 982 cpu: 0 cycle[cpu]: 3497 branch: 0 taken: 0 i: 0 dest_rgst: 10 i: 0 src_rgst: 10 src_mem: 40c8e8
fptr: 0x55b128c99d60 IP is: 401186 fence: 0 rdtsc: 0 instr_id: 983 cpu: 0 cycle[cpu]: 3497 branch: 0 taken: 0 dest_mem: 40c2c0 i: 0 src_rgst: 26 i: 1 src_rgst: 10
fptr: 0x55b128c99d60 IP is: 40118d fence: 0 rdtsc: 0 instr_id: 984 cpu: 0 cycle[cpu]: 3497 branch: 1 taken: 1 i: 0 dest_rgst: 26 i: 0 src_rgst: 26
found a miss for CPU: 0 packet->address: 14623110 cycle: 3515 receiver_checks_for_a_miss 0 instr_id: 981
it is a row buffer miss  open cpu: 0 open row is: 7140 read_rank: 1 read_bank: 6 read_channel: 0 instr_id: 981 full_addr: 935879040
filled into cache: 3, for cpu: 0 current_core_cycle[0]: 3684  packet->instr_id: 981 packet->ip: 4198784
filled into cache: 5, for cpu: 0 current_core_cycle[0]: 3684  packet->instr_id: 981 packet->ip: 4198784
 Dtaa array Returned way in set: 0 is: 2745 evicting blocks details, instr_id: 981 cpu: 0 full_address: 935879040
filled into cache: 6, for cpu: 0 current_core_cycle[0]: 3691  packet->instr_id: 981 packet->ip: 4198784
filled into cache: 7, for cpu: 0 current_core_cycle[0]: 3691  packet->instr_id: 981 packet->ip: 4198784
 Retiring instr_id: 981 ip: 4198784 cpu: 0 current_core_cycle[cpu]: 3692 fence: 0
fptr: 0x55b128c99d60 IP is: 40112e fence: 0 rdtsc: 0 instr_id: 985 cpu: 0 cycle[cpu]: 3693 branch: 0 taken: 0 i: 0 dest_rgst: 10 i: 0 src_rgst: 4
fptr: 0x55b128c99d60 IP is: 401131 fence: 0 rdtsc: 0 instr_id: 986 cpu: 0 cycle[cpu]: 3693 branch: 0 taken: 0 i: 0 dest_rgst: 10 i: 0 src_rgst: 10 src_mem: 40c100
fptr: 0x55b128c99d60 IP is: 401134 fence: 0 rdtsc: 0 instr_id: 987 cpu: 0 cycle[cpu]: 3693 branch: 0 taken: 0 i: 0 dest_rgst: 25 i: 0 src_rgst: 26 src_mem: 40c2c8
fptr: 0x55b128c99d60 IP is: 40113c fence: 0 rdtsc: 0 instr_id: 988 cpu: 0 cycle[cpu]: 3693 branch: 0 taken: 0 dest_mem: 40c2c0 i: 0 src_rgst: 26 i: 1 src_rgst: 10
fptr: 0x55b128c99d60 IP is: 401143 fence: 0 rdtsc: 0 instr_id: 989 cpu: 0 cycle[cpu]: 3694 branch: 1 taken: 1 i: 0 dest_rgst: 26 i: 0 src_rgst: 26 i: 1 src_rgst: 25
fptr: 0x55b128c99d60 IP is: 401152 fence: 0 rdtsc: 0 instr_id: 990 cpu: 0 cycle[cpu]: 3712 branch: 0 taken: 0 i: 0 dest_rgst: 26 dest_mem: 40c078 i: 1 dest_rgst: 6 i: 0 src_rgst: 13 i: 1 src_rgst: 26 i: 2 src_rgst: 6
fptr: 0x55b128c99d60 IP is: 401155 fence: 1 rdtsc: 0 instr_id: 991 cpu: 0 cycle[cpu]: 3712 branch: 0 taken: 0 i: 0 dest_rgst: 25 i: 0 src_rgst: 26 src_mem: 40c2c8
found a miss for CPU: 0 packet->address: 14623395 cycle: 3717 receiver_checks_for_a_miss 0 instr_id: 982
it is a row buffer hit  open cpu: 0 open row is: 7140 read_rank: 2 read_bank: 3 read_channel: 0 instr_id: 982 full_addr: 935897320
filled into cache: 4, for cpu: 0 current_core_cycle[0]: 3776  packet->instr_id: 982 packet->ip: 4198787
filled into cache: 5, for cpu: 0 current_core_cycle[0]: 3776  packet->instr_id: 982 packet->ip: 4198787
 Retiring instr_id: 982 ip: 4198787 cpu: 0 current_core_cycle[cpu]: 3776 fence: 0
 Dtaa array Returned way in set: 0 is: 26323 evicting blocks details, instr_id: 982 cpu: 0 full_address: 935897320
filled into cache: 6, for cpu: 0 current_core_cycle[0]: 3783  packet->instr_id: 982 packet->ip: 4198787
filled into cache: 7, for cpu: 0 current_core_cycle[0]: 3783  packet->instr_id: 982 packet->ip: 4198787
 Retiring instr_id: 983 ip: 4198790 cpu: 0 current_core_cycle[cpu]: 3786 fence: 0
 Retiring instr_id: 984 ip: 4198797 cpu: 0 current_core_cycle[cpu]: 3786 fence: 0
 Retiring instr_id: 985 ip: 4198702 cpu: 0 current_core_cycle[cpu]: 3786 fence: 0
 Retiring instr_id: 986 ip: 4198705 cpu: 0 current_core_cycle[cpu]: 3786 fence: 0
 Retiring instr_id: 987 ip: 4198708 cpu: 0 current_core_cycle[cpu]: 3787 fence: 0
 Retiring instr_id: 988 ip: 4198716 cpu: 0 current_core_cycle[cpu]: 3787 fence: 0
 Retiring instr_id: 989 ip: 4198723 cpu: 0 current_core_cycle[cpu]: 3787 fence: 0
 Retiring instr_id: 990 ip: 4198738 cpu: 0 current_core_cycle[cpu]: 3788 fence: 0
FIRST_FENCE: 542 Calculated LLC occupancy is : 4
FFFFFFFFence is removed for cpu: 0 ooo_cpu[i].num_retired: 991 fence_instr[i]: 991 core cycle: 3789 instr unique_id: 992
Tag LLC Valid blocks: 14 Dirty blocks: 0 Invalid blocks: 57330cpu 0 blocks  valid: 14 dirty: 0 cpu 1 blocks-> valid: 0 dirty: 0
Data LLC Valid blocks: 14 Dirty blocks: 0 Invalid blocks: 32754cpu 0 blocks-> valid: 14 dirty: 0 cpu 1 blocks-> valid: 0 dirty: 0
fptr: 0x55b128c99d60 IP is: 40115d fence: 0 rdtsc: 0 instr_id: 992 cpu: 0 cycle[cpu]: 3789 branch: 1 taken: 1 i: 0 dest_rgst: 26 i: 0 src_rgst: 26 i: 1 src_rgst: 25
 Retiring instr_id: 991 ip: 4198741 cpu: 0 current_core_cycle[cpu]: 3799 fence: 1
 Retiring instr_id: 992 ip: 4198749 cpu: 0 current_core_cycle[cpu]: 3801 fence: 0
fptr: 0x55b128c99d60 IP is: 401190 fence: 0 rdtsc: 0 instr_id: 993 cpu: 0 cycle[cpu]: 3802 branch: 0 taken: 0 i: 0 dest_rgst: 26 dest_mem: 40c078 i: 1 dest_rgst: 6 i: 0 src_rgst: 26 i: 1 src_rgst: 6
clflush is ON on address: 5024552 instr_unique_id: 994 cycle: 3802 max_clflush_possible: 32
cpu: 0 num: 0 after updation: 5024552
fptr: 0x55b128c99d60 IP is: 401195 fence: 0 rdtsc: 0 instr_id: 994 cpu: 0 cycle[cpu]: 3802 branch: 1 taken: 1 i: 0 dest_rgst: 26 i: 0 src_rgst: 26
 Retiring instr_id: 993 ip: 4198800 cpu: 0 current_core_cycle[cpu]: 3815 fence: 0
 Retiring instr_id: 994 ip: 4198805 cpu: 0 current_core_cycle[cpu]: 3817 fence: 0
fptr: 0x55b128c99d60 IP is: 40115f fence: 0 rdtsc: 0 instr_id: 995 cpu: 0 cycle[cpu]: 3818 branch: 0 taken: 0 i: 0 dest_rgst: 26 dest_mem: 40c078 i: 1 dest_rgst: 6 i: 0 src_rgst: 13 i: 1 src_rgst: 26 i: 2 src_rgst: 6
fptr: 0x55b128c99d60 IP is: 401162 fence: 1 rdtsc: 0 instr_id: 996 cpu: 0 cycle[cpu]: 3818 branch: 0 taken: 0
inside clflush check
/////////////////// Cache state before clflush /////////////////////
clflush called on cpu: 0 cpu_cycle: 3822 address: 4cab28 address>>12: 4ca address>>6: 132ac 
clflush called on cpu: 0 cpu_cycle: 3822 address: 5024552 address>>12: 1226 address>>6: 78508 
