
*** ChampSim Multicore Out-of-Order Simulator ***

Warmup Instructions: 0
Simulation Instructions: 1048380
Number of CPUs: 1
L1D sets: 64
L1D ways: 8
L1D MSHR: 32
L2C sets: 512
L2C ways: 8
L2C MSHR: 32
LLC sets: 2048
LLC ways: 28
LLC MSHR: 32
data LLC sets: 1
data LLC ways: 32768
Off-chip DRAM Size: 4096 MB Channels: 1 Width: 64-bit Data Rate: 1600 MT/s
 DRAM column: 32DRAM RANKS: 8 DRAM BANKS: 8 DRAM_ROWS: 32768 DRAM_ROW_SIZE: 2
REPETETION_CODING: 0
DIFFERENTIAL_SIGNALLING: 0
EXTRA_ARR_SIZE_FOR_LLC_OCC_CHK: 0
EXTRA_ARR_SIZE: 0
EXTRA_ARR_MAX_ADDR: 0
ARR_START_ADDR: 0
ARR_MAX_LIMIT: 0
MAX_CLFLUSH_POSSIBLE: 1
MAX_ARR_INC: 1
NUM_ACCESS_FOR_BIT1: 1

CPU 0 runs /home/yashikav/Desktop/Mirage_project/ChampSim_for_mirage_forward_fill_early_with_error_correction_with_LLC_occupancy_mediator/fa_lru_analysis/champsim.trace_fa_lru_cache.gz
count_traces: 0 trace_file is: 0x564b57589a80 inc: 0x564b57589b90 fl_llc_occ: 0x564b57589db0 fl: 0x564b57589ca0 fen: 0x564b57589ec0 fen_rd: 0x564b57589fd0 arr_access: 0x564b5758a0e0
seed_number is: 23535
CPU 0 Bimodal branch predictor
LLC: 0x564b55cdac10
ARR_MAX_LIMIT: 0 EXTRA_ARR_SIZE: 0 ooo_cpu[0].REDUCED_ARR_SIZE: 0
MIRAGE: 1
PRINCE: 1
LLC NUM way: 28 sets per skew: 2048 NUM skew: 2 block size: 64
Configurations set in init_cache_indexing
 mem_size: 3670016  NUM_SKEWING_FUNCTIONS: 2  setShift: 6  setMask: 2048

Warmup complete CPU 0 instructions: 0 cycles: 1 (Simulation time: 0 hr 0 min 0 sec) 

found a miss for CPU: 0 packet->address: 14623116 cycle: 126 receiver_checks_for_a_miss 0 instr_id: 0
found a miss for CPU: 0 packet->address: 14623260 cycle: 431 receiver_checks_for_a_miss 0 instr_id: 6
found a miss for CPU: 0 packet->address: 14623261 cycle: 432 receiver_checks_for_a_miss 0 instr_id: 9
found a miss for CPU: 0 packet->address: 14623363 cycle: 732 receiver_checks_for_a_miss 0 instr_id: 7
found a miss for CPU: 0 packet->address: 14623499 cycle: 852 receiver_checks_for_a_miss 0 instr_id: 11
found a miss for CPU: 0 packet->address: 14623500 cycle: 859 receiver_checks_for_a_miss 0 instr_id: 15
found a miss for CPU: 0 packet->address: 14623501 cycle: 876 receiver_checks_for_a_miss 0 instr_id: 19
found a miss for CPU: 0 packet->address: 14623502 cycle: 884 receiver_checks_for_a_miss 0 instr_id: 23
found a miss for CPU: 0 packet->address: 14623503 cycle: 886 receiver_checks_for_a_miss 0 instr_id: 27
found a miss for CPU: 0 packet->address: 14623504 cycle: 890 receiver_checks_for_a_miss 0 instr_id: 31
found a miss for CPU: 0 packet->address: 14623505 cycle: 892 receiver_checks_for_a_miss 0 instr_id: 35
found a miss for CPU: 0 packet->address: 14623506 cycle: 894 receiver_checks_for_a_miss 0 instr_id: 39
found a miss for CPU: 0 packet->address: 14623507 cycle: 896 receiver_checks_for_a_miss 0 instr_id: 43
found a miss for CPU: 0 packet->address: 14623508 cycle: 898 receiver_checks_for_a_miss 0 instr_id: 47
found a miss for CPU: 0 packet->address: 14623509 cycle: 900 receiver_checks_for_a_miss 0 instr_id: 51
found a miss for CPU: 0 packet->address: 14623510 cycle: 902 receiver_checks_for_a_miss 0 instr_id: 55
found a miss for CPU: 0 packet->address: 14623511 cycle: 904 receiver_checks_for_a_miss 0 instr_id: 59
found a miss for CPU: 0 packet->address: 14623512 cycle: 906 receiver_checks_for_a_miss 0 instr_id: 63
found a miss for CPU: 0 packet->address: 14623513 cycle: 908 receiver_checks_for_a_miss 0 instr_id: 67
found a miss for CPU: 0 packet->address: 14623514 cycle: 910 receiver_checks_for_a_miss 0 instr_id: 71
found a miss for CPU: 0 packet->address: 14623515 cycle: 912 receiver_checks_for_a_miss 0 instr_id: 75
found a miss for CPU: 0 packet->address: 14623516 cycle: 914 receiver_checks_for_a_miss 0 instr_id: 79
found a miss for CPU: 0 packet->address: 14623517 cycle: 916 receiver_checks_for_a_miss 0 instr_id: 83
found a miss for CPU: 0 packet->address: 14623518 cycle: 918 receiver_checks_for_a_miss 0 instr_id: 87
found a miss for CPU: 0 packet->address: 14623519 cycle: 920 receiver_checks_for_a_miss 0 instr_id: 91
found a miss for CPU: 0 packet->address: 14623520 cycle: 922 receiver_checks_for_a_miss 0 instr_id: 95
found a miss for CPU: 0 packet->address: 14623521 cycle: 924 receiver_checks_for_a_miss 0 instr_id: 99
found a miss for CPU: 0 packet->address: 14623522 cycle: 926 receiver_checks_for_a_miss 0 instr_id: 103
found a miss for CPU: 0 packet->address: 14623523 cycle: 928 receiver_checks_for_a_miss 0 instr_id: 107
found a miss for CPU: 0 packet->address: 14623524 cycle: 1050 receiver_checks_for_a_miss 0 instr_id: 111
found a miss for CPU: 0 packet->address: 14623525 cycle: 1066 receiver_checks_for_a_miss 0 instr_id: 115
found a miss for CPU: 0 packet->address: 14623526 cycle: 1082 receiver_checks_for_a_miss 0 instr_id: 119
found a miss for CPU: 0 packet->address: 14623527 cycle: 1098 receiver_checks_for_a_miss 0 instr_id: 123
found a miss for CPU: 0 packet->address: 14623528 cycle: 1114 receiver_checks_for_a_miss 0 instr_id: 127
found a miss for CPU: 0 packet->address: 14623529 cycle: 1130 receiver_checks_for_a_miss 0 instr_id: 131
found a miss for CPU: 0 packet->address: 14623530 cycle: 1146 receiver_checks_for_a_miss 0 instr_id: 135
found a miss for CPU: 0 packet->address: 14623531 cycle: 1162 receiver_checks_for_a_miss 0 instr_id: 139
found a miss for CPU: 0 packet->address: 14623532 cycle: 1178 receiver_checks_for_a_miss 0 instr_id: 143
found a miss for CPU: 0 packet->address: 14623533 cycle: 1194 receiver_checks_for_a_miss 0 instr_id: 147
found a miss for CPU: 0 packet->address: 14623534 cycle: 1210 receiver_checks_for_a_miss 0 instr_id: 151
found a miss for CPU: 0 packet->address: 14623535 cycle: 1226 receiver_checks_for_a_miss 0 instr_id: 155
found a miss for CPU: 0 packet->address: 14623536 cycle: 1242 receiver_checks_for_a_miss 0 instr_id: 159
found a miss for CPU: 0 packet->address: 14623537 cycle: 1258 receiver_checks_for_a_miss 0 instr_id: 163
found a miss for CPU: 0 packet->address: 14623538 cycle: 1274 receiver_checks_for_a_miss 0 instr_id: 167
found a miss for CPU: 0 packet->address: 14623539 cycle: 1290 receiver_checks_for_a_miss 0 instr_id: 171
found a miss for CPU: 0 packet->address: 14623540 cycle: 1306 receiver_checks_for_a_miss 0 instr_id: 175
found a miss for CPU: 0 packet->address: 14623541 cycle: 1322 receiver_checks_for_a_miss 0 instr_id: 179
found a miss for CPU: 0 packet->address: 14623542 cycle: 1338 receiver_checks_for_a_miss 0 instr_id: 183
found a miss for CPU: 0 packet->address: 14623543 cycle: 1354 receiver_checks_for_a_miss 0 instr_id: 187
found a miss for CPU: 0 packet->address: 14623544 cycle: 1370 receiver_checks_for_a_miss 0 instr_id: 191
found a miss for CPU: 0 packet->address: 14623545 cycle: 1386 receiver_checks_for_a_miss 0 instr_id: 195
found a miss for CPU: 0 packet->address: 14623546 cycle: 1402 receiver_checks_for_a_miss 0 instr_id: 199
found a miss for CPU: 0 packet->address: 14623547 cycle: 1418 receiver_checks_for_a_miss 0 instr_id: 203
found a miss for CPU: 0 packet->address: 14623548 cycle: 1434 receiver_checks_for_a_miss 0 instr_id: 207
found a miss for CPU: 0 packet->address: 14623549 cycle: 1450 receiver_checks_for_a_miss 0 instr_id: 211
found a miss for CPU: 0 packet->address: 14623550 cycle: 1466 receiver_checks_for_a_miss 0 instr_id: 215
found a miss for CPU: 0 packet->address: 14623551 cycle: 1482 receiver_checks_for_a_miss 0 instr_id: 219
found a miss for CPU: 0 packet->address: 14623616 cycle: 1601 receiver_checks_for_a_miss 0 instr_id: 223
found a miss for CPU: 0 packet->address: 14623617 cycle: 1610 receiver_checks_for_a_miss 0 instr_id: 227
found a miss for CPU: 0 packet->address: 14623618 cycle: 1618 receiver_checks_for_a_miss 0 instr_id: 231
found a miss for CPU: 0 packet->address: 14623619 cycle: 1624 receiver_checks_for_a_miss 0 instr_id: 235
found a miss for CPU: 0 packet->address: 14623620 cycle: 1626 receiver_checks_for_a_miss 0 instr_id: 239
found a miss for CPU: 0 packet->address: 14623621 cycle: 1628 receiver_checks_for_a_miss 0 instr_id: 243
found a miss for CPU: 0 packet->address: 14623622 cycle: 1630 receiver_checks_for_a_miss 0 instr_id: 247
found a miss for CPU: 0 packet->address: 14623623 cycle: 1632 receiver_checks_for_a_miss 0 instr_id: 251
found a miss for CPU: 0 packet->address: 14623624 cycle: 1634 receiver_checks_for_a_miss 0 instr_id: 255
found a miss for CPU: 0 packet->address: 14623625 cycle: 1642 receiver_checks_for_a_miss 0 instr_id: 259
found a miss for CPU: 0 packet->address: 14623626 cycle: 1658 receiver_checks_for_a_miss 0 instr_id: 263
found a miss for CPU: 0 packet->address: 14623627 cycle: 1674 receiver_checks_for_a_miss 0 instr_id: 267
found a miss for CPU: 0 packet->address: 14623628 cycle: 1690 receiver_checks_for_a_miss 0 instr_id: 271
found a miss for CPU: 0 packet->address: 14623629 cycle: 1706 receiver_checks_for_a_miss 0 instr_id: 275
found a miss for CPU: 0 packet->address: 14623630 cycle: 1722 receiver_checks_for_a_miss 0 instr_id: 279
found a miss for CPU: 0 packet->address: 14623631 cycle: 1738 receiver_checks_for_a_miss 0 instr_id: 283
found a miss for CPU: 0 packet->address: 14623632 cycle: 1754 receiver_checks_for_a_miss 0 instr_id: 287
found a miss for CPU: 0 packet->address: 14623633 cycle: 1770 receiver_checks_for_a_miss 0 instr_id: 291
found a miss for CPU: 0 packet->address: 14623634 cycle: 1786 receiver_checks_for_a_miss 0 instr_id: 295
found a miss for CPU: 0 packet->address: 14623635 cycle: 1802 receiver_checks_for_a_miss 0 instr_id: 299
found a miss for CPU: 0 packet->address: 14623636 cycle: 1818 receiver_checks_for_a_miss 0 instr_id: 303
found a miss for CPU: 0 packet->address: 14623637 cycle: 1834 receiver_checks_for_a_miss 0 instr_id: 307
found a miss for CPU: 0 packet->address: 14623638 cycle: 1850 receiver_checks_for_a_miss 0 instr_id: 311
found a miss for CPU: 0 packet->address: 14623639 cycle: 1866 receiver_checks_for_a_miss 0 instr_id: 315
found a miss for CPU: 0 packet->address: 14623640 cycle: 1882 receiver_checks_for_a_miss 0 instr_id: 319
found a miss for CPU: 0 packet->address: 14623641 cycle: 1898 receiver_checks_for_a_miss 0 instr_id: 323
found a miss for CPU: 0 packet->address: 14623642 cycle: 1914 receiver_checks_for_a_miss 0 instr_id: 327
found a miss for CPU: 0 packet->address: 14623643 cycle: 1930 receiver_checks_for_a_miss 0 instr_id: 331
found a miss for CPU: 0 packet->address: 14623644 cycle: 1946 receiver_checks_for_a_miss 0 instr_id: 335
found a miss for CPU: 0 packet->address: 14623645 cycle: 1962 receiver_checks_for_a_miss 0 instr_id: 339
found a miss for CPU: 0 packet->address: 14623646 cycle: 1978 receiver_checks_for_a_miss 0 instr_id: 343
found a miss for CPU: 0 packet->address: 14623647 cycle: 1994 receiver_checks_for_a_miss 0 instr_id: 347
found a miss for CPU: 0 packet->address: 14623648 cycle: 2010 receiver_checks_for_a_miss 0 instr_id: 351
found a miss for CPU: 0 packet->address: 14623649 cycle: 2026 receiver_checks_for_a_miss 0 instr_id: 355
found a miss for CPU: 0 packet->address: 14623650 cycle: 2042 receiver_checks_for_a_miss 0 instr_id: 359
found a miss for CPU: 0 packet->address: 14623651 cycle: 2058 receiver_checks_for_a_miss 0 instr_id: 363
found a miss for CPU: 0 packet->address: 14623652 cycle: 2074 receiver_checks_for_a_miss 0 instr_id: 367
found a miss for CPU: 0 packet->address: 14623653 cycle: 2090 receiver_checks_for_a_miss 0 instr_id: 371
found a miss for CPU: 0 packet->address: 14623654 cycle: 2106 receiver_checks_for_a_miss 0 instr_id: 375
found a miss for CPU: 0 packet->address: 14623655 cycle: 2122 receiver_checks_for_a_miss 0 instr_id: 379
found a miss for CPU: 0 packet->address: 14623656 cycle: 2138 receiver_checks_for_a_miss 0 instr_id: 383
found a miss for CPU: 0 packet->address: 14623657 cycle: 2154 receiver_checks_for_a_miss 0 instr_id: 387
found a miss for CPU: 0 packet->address: 14623658 cycle: 2170 receiver_checks_for_a_miss 0 instr_id: 391
found a miss for CPU: 0 packet->address: 14623659 cycle: 2186 receiver_checks_for_a_miss 0 instr_id: 395
found a miss for CPU: 0 packet->address: 14623660 cycle: 2202 receiver_checks_for_a_miss 0 instr_id: 399
found a miss for CPU: 0 packet->address: 14623661 cycle: 2218 receiver_checks_for_a_miss 0 instr_id: 403
found a miss for CPU: 0 packet->address: 14623662 cycle: 2234 receiver_checks_for_a_miss 0 instr_id: 407
found a miss for CPU: 0 packet->address: 14623663 cycle: 2250 receiver_checks_for_a_miss 0 instr_id: 411
found a miss for CPU: 0 packet->address: 14623664 cycle: 2266 receiver_checks_for_a_miss 0 instr_id: 415
found a miss for CPU: 0 packet->address: 14623665 cycle: 2282 receiver_checks_for_a_miss 0 instr_id: 419
found a miss for CPU: 0 packet->address: 14623666 cycle: 2298 receiver_checks_for_a_miss 0 instr_id: 423
found a miss for CPU: 0 packet->address: 14623667 cycle: 2314 receiver_checks_for_a_miss 0 instr_id: 427
found a miss for CPU: 0 packet->address: 14623668 cycle: 2330 receiver_checks_for_a_miss 0 instr_id: 431
found a miss for CPU: 0 packet->address: 14623669 cycle: 2346 receiver_checks_for_a_miss 0 instr_id: 435
found a miss for CPU: 0 packet->address: 14623670 cycle: 2362 receiver_checks_for_a_miss 0 instr_id: 439
found a miss for CPU: 0 packet->address: 14623671 cycle: 2378 receiver_checks_for_a_miss 0 instr_id: 443
found a miss for CPU: 0 packet->address: 14623672 cycle: 2394 receiver_checks_for_a_miss 0 instr_id: 447
found a miss for CPU: 0 packet->address: 14623673 cycle: 2410 receiver_checks_for_a_miss 0 instr_id: 451
found a miss for CPU: 0 packet->address: 14623674 cycle: 2426 receiver_checks_for_a_miss 0 instr_id: 455
found a miss for CPU: 0 packet->address: 14623675 cycle: 2442 receiver_checks_for_a_miss 0 instr_id: 459
found a miss for CPU: 0 packet->address: 14623676 cycle: 2458 receiver_checks_for_a_miss 0 instr_id: 463
found a miss for CPU: 0 packet->address: 14623677 cycle: 2474 receiver_checks_for_a_miss 0 instr_id: 467
found a miss for CPU: 0 packet->address: 14623678 cycle: 2490 receiver_checks_for_a_miss 0 instr_id: 471
found a miss for CPU: 0 packet->address: 14623679 cycle: 2506 receiver_checks_for_a_miss 0 instr_id: 475
found a miss for CPU: 0 packet->address: 14623744 cycle: 2625 receiver_checks_for_a_miss 0 instr_id: 479
found a miss for CPU: 0 packet->address: 14623745 cycle: 2634 receiver_checks_for_a_miss 0 instr_id: 483
found a miss for CPU: 0 packet->address: 14623746 cycle: 2642 receiver_checks_for_a_miss 0 instr_id: 487
found a miss for CPU: 0 packet->address: 14623747 cycle: 2648 receiver_checks_for_a_miss 0 instr_id: 491
found a miss for CPU: 0 packet->address: 14623748 cycle: 2650 receiver_checks_for_a_miss 0 instr_id: 495
found a miss for CPU: 0 packet->address: 14623749 cycle: 2652 receiver_checks_for_a_miss 0 instr_id: 499
found a miss for CPU: 0 packet->address: 14623750 cycle: 2654 receiver_checks_for_a_miss 0 instr_id: 503
found a miss for CPU: 0 packet->address: 14623751 cycle: 2656 receiver_checks_for_a_miss 0 instr_id: 507
found a miss for CPU: 0 packet->address: 14623752 cycle: 2658 receiver_checks_for_a_miss 0 instr_id: 511
found a miss for CPU: 0 packet->address: 14623753 cycle: 2666 receiver_checks_for_a_miss 0 instr_id: 515
found a miss for CPU: 0 packet->address: 14623754 cycle: 2682 receiver_checks_for_a_miss 0 instr_id: 519
found a miss for CPU: 0 packet->address: 14623755 cycle: 2698 receiver_checks_for_a_miss 0 instr_id: 523
found a miss for CPU: 0 packet->address: 14623756 cycle: 2714 receiver_checks_for_a_miss 0 instr_id: 527
found a miss for CPU: 0 packet->address: 14623757 cycle: 2730 receiver_checks_for_a_miss 0 instr_id: 531
found a miss for CPU: 0 packet->address: 14623758 cycle: 2746 receiver_checks_for_a_miss 0 instr_id: 535
found a miss for CPU: 0 packet->address: 14623759 cycle: 2762 receiver_checks_for_a_miss 0 instr_id: 539
found a miss for CPU: 0 packet->address: 14623760 cycle: 2778 receiver_checks_for_a_miss 0 instr_id: 543
found a miss for CPU: 0 packet->address: 14623761 cycle: 2794 receiver_checks_for_a_miss 0 instr_id: 547
found a miss for CPU: 0 packet->address: 14623762 cycle: 2810 receiver_checks_for_a_miss 0 instr_id: 551
found a miss for CPU: 0 packet->address: 14623763 cycle: 2826 receiver_checks_for_a_miss 0 instr_id: 555
found a miss for CPU: 0 packet->address: 14623764 cycle: 2842 receiver_checks_for_a_miss 0 instr_id: 559
found a miss for CPU: 0 packet->address: 14623765 cycle: 2858 receiver_checks_for_a_miss 0 instr_id: 563
found a miss for CPU: 0 packet->address: 14623766 cycle: 2874 receiver_checks_for_a_miss 0 instr_id: 567
found a miss for CPU: 0 packet->address: 14623767 cycle: 2890 receiver_checks_for_a_miss 0 instr_id: 571
found a miss for CPU: 0 packet->address: 14623768 cycle: 2938 receiver_checks_for_a_miss 0 instr_id: 575
found a miss for CPU: 0 packet->address: 14623769 cycle: 2946 receiver_checks_for_a_miss 0 instr_id: 579
found a miss for CPU: 0 packet->address: 14623770 cycle: 2952 receiver_checks_for_a_miss 0 instr_id: 583
found a miss for CPU: 0 packet->address: 14623771 cycle: 2954 receiver_checks_for_a_miss 0 instr_id: 587
found a miss for CPU: 0 packet->address: 14623772 cycle: 2970 receiver_checks_for_a_miss 0 instr_id: 591
found a miss for CPU: 0 packet->address: 14623773 cycle: 2986 receiver_checks_for_a_miss 0 instr_id: 595
found a miss for CPU: 0 packet->address: 14623774 cycle: 3002 receiver_checks_for_a_miss 0 instr_id: 599
found a miss for CPU: 0 packet->address: 14623775 cycle: 3018 receiver_checks_for_a_miss 0 instr_id: 603
found a miss for CPU: 0 packet->address: 14623776 cycle: 3034 receiver_checks_for_a_miss 0 instr_id: 607
found a miss for CPU: 0 packet->address: 14623777 cycle: 3050 receiver_checks_for_a_miss 0 instr_id: 611
found a miss for CPU: 0 packet->address: 14623778 cycle: 3066 receiver_checks_for_a_miss 0 instr_id: 615
found a miss for CPU: 0 packet->address: 14623779 cycle: 3082 receiver_checks_for_a_miss 0 instr_id: 619
found a miss for CPU: 0 packet->address: 14623780 cycle: 3098 receiver_checks_for_a_miss 0 instr_id: 623
found a miss for CPU: 0 packet->address: 14623781 cycle: 3114 receiver_checks_for_a_miss 0 instr_id: 627
found a miss for CPU: 0 packet->address: 14623782 cycle: 3130 receiver_checks_for_a_miss 0 instr_id: 631
found a miss for CPU: 0 packet->address: 14623783 cycle: 3146 receiver_checks_for_a_miss 0 instr_id: 635
found a miss for CPU: 0 packet->address: 14623784 cycle: 3162 receiver_checks_for_a_miss 0 instr_id: 639
found a miss for CPU: 0 packet->address: 14623785 cycle: 3178 receiver_checks_for_a_miss 0 instr_id: 643
found a miss for CPU: 0 packet->address: 14623786 cycle: 3194 receiver_checks_for_a_miss 0 instr_id: 647
found a miss for CPU: 0 packet->address: 14623787 cycle: 3210 receiver_checks_for_a_miss 0 instr_id: 651
found a miss for CPU: 0 packet->address: 14623788 cycle: 3226 receiver_checks_for_a_miss 0 instr_id: 655
found a miss for CPU: 0 packet->address: 14623789 cycle: 3242 receiver_checks_for_a_miss 0 instr_id: 659
found a miss for CPU: 0 packet->address: 14623790 cycle: 3258 receiver_checks_for_a_miss 0 instr_id: 663
found a miss for CPU: 0 packet->address: 14623791 cycle: 3274 receiver_checks_for_a_miss 0 instr_id: 667
found a miss for CPU: 0 packet->address: 14623792 cycle: 3290 receiver_checks_for_a_miss 0 instr_id: 671
found a miss for CPU: 0 packet->address: 14623793 cycle: 3306 receiver_checks_for_a_miss 0 instr_id: 675
found a miss for CPU: 0 packet->address: 14623794 cycle: 3322 receiver_checks_for_a_miss 0 instr_id: 679
found a miss for CPU: 0 packet->address: 14623795 cycle: 3338 receiver_checks_for_a_miss 0 instr_id: 683
found a miss for CPU: 0 packet->address: 14623796 cycle: 3354 receiver_checks_for_a_miss 0 instr_id: 687
found a miss for CPU: 0 packet->address: 14623797 cycle: 3370 receiver_checks_for_a_miss 0 instr_id: 691
found a miss for CPU: 0 packet->address: 14623798 cycle: 3386 receiver_checks_for_a_miss 0 instr_id: 695
found a miss for CPU: 0 packet->address: 14623799 cycle: 3402 receiver_checks_for_a_miss 0 instr_id: 699
found a miss for CPU: 0 packet->address: 14623800 cycle: 3418 receiver_checks_for_a_miss 0 instr_id: 703
found a miss for CPU: 0 packet->address: 14623801 cycle: 3434 receiver_checks_for_a_miss 0 instr_id: 707
found a miss for CPU: 0 packet->address: 14623802 cycle: 3450 receiver_checks_for_a_miss 0 instr_id: 711
found a miss for CPU: 0 packet->address: 14623803 cycle: 3466 receiver_checks_for_a_miss 0 instr_id: 715
found a miss for CPU: 0 packet->address: 14623804 cycle: 3482 receiver_checks_for_a_miss 0 instr_id: 719
found a miss for CPU: 0 packet->address: 14623805 cycle: 3498 receiver_checks_for_a_miss 0 instr_id: 723
found a miss for CPU: 0 packet->address: 14623806 cycle: 3514 receiver_checks_for_a_miss 0 instr_id: 727
found a miss for CPU: 0 packet->address: 14623807 cycle: 3530 receiver_checks_for_a_miss 0 instr_id: 731
found a miss for CPU: 0 packet->address: 14623872 cycle: 3649 receiver_checks_for_a_miss 0 instr_id: 735
found a miss for CPU: 0 packet->address: 14623873 cycle: 3658 receiver_checks_for_a_miss 0 instr_id: 739
found a miss for CPU: 0 packet->address: 14623874 cycle: 3666 receiver_checks_for_a_miss 0 instr_id: 743
found a miss for CPU: 0 packet->address: 14623875 cycle: 3672 receiver_checks_for_a_miss 0 instr_id: 747
found a miss for CPU: 0 packet->address: 14623876 cycle: 3674 receiver_checks_for_a_miss 0 instr_id: 751
found a miss for CPU: 0 packet->address: 14623877 cycle: 3676 receiver_checks_for_a_miss 0 instr_id: 755
found a miss for CPU: 0 packet->address: 14623878 cycle: 3678 receiver_checks_for_a_miss 0 instr_id: 759
found a miss for CPU: 0 packet->address: 14623879 cycle: 3680 receiver_checks_for_a_miss 0 instr_id: 763
found a miss for CPU: 0 packet->address: 14623880 cycle: 3682 receiver_checks_for_a_miss 0 instr_id: 767
found a miss for CPU: 0 packet->address: 14623881 cycle: 3690 receiver_checks_for_a_miss 0 instr_id: 771
found a miss for CPU: 0 packet->address: 14623882 cycle: 3706 receiver_checks_for_a_miss 0 instr_id: 775
found a miss for CPU: 0 packet->address: 14623883 cycle: 3722 receiver_checks_for_a_miss 0 instr_id: 779
found a miss for CPU: 0 packet->address: 14623884 cycle: 3738 receiver_checks_for_a_miss 0 instr_id: 783
found a miss for CPU: 0 packet->address: 14623885 cycle: 3754 receiver_checks_for_a_miss 0 instr_id: 787
found a miss for CPU: 0 packet->address: 14623886 cycle: 3770 receiver_checks_for_a_miss 0 instr_id: 791
found a miss for CPU: 0 packet->address: 14623887 cycle: 3786 receiver_checks_for_a_miss 0 instr_id: 795
found a miss for CPU: 0 packet->address: 14623888 cycle: 3802 receiver_checks_for_a_miss 0 instr_id: 799
found a miss for CPU: 0 packet->address: 14623889 cycle: 3818 receiver_checks_for_a_miss 0 instr_id: 803
found a miss for CPU: 0 packet->address: 14623890 cycle: 3834 receiver_checks_for_a_miss 0 instr_id: 807
found a miss for CPU: 0 packet->address: 14623891 cycle: 3850 receiver_checks_for_a_miss 0 instr_id: 811
found a miss for CPU: 0 packet->address: 14623892 cycle: 3866 receiver_checks_for_a_miss 0 instr_id: 815
found a miss for CPU: 0 packet->address: 14623893 cycle: 3882 receiver_checks_for_a_miss 0 instr_id: 819
found a miss for CPU: 0 packet->address: 14623894 cycle: 3898 receiver_checks_for_a_miss 0 instr_id: 823
found a miss for CPU: 0 packet->address: 14623895 cycle: 3914 receiver_checks_for_a_miss 0 instr_id: 827
found a miss for CPU: 0 packet->address: 14623896 cycle: 3930 receiver_checks_for_a_miss 0 instr_id: 831
found a miss for CPU: 0 packet->address: 14623897 cycle: 3946 receiver_checks_for_a_miss 0 instr_id: 835
found a miss for CPU: 0 packet->address: 14623898 cycle: 3962 receiver_checks_for_a_miss 0 instr_id: 839
found a miss for CPU: 0 packet->address: 14623899 cycle: 3978 receiver_checks_for_a_miss 0 instr_id: 843
found a miss for CPU: 0 packet->address: 14623900 cycle: 3994 receiver_checks_for_a_miss 0 instr_id: 847
found a miss for CPU: 0 packet->address: 14623901 cycle: 4010 receiver_checks_for_a_miss 0 instr_id: 851
found a miss for CPU: 0 packet->address: 14623902 cycle: 4026 receiver_checks_for_a_miss 0 instr_id: 855
found a miss for CPU: 0 packet->address: 14623903 cycle: 4042 receiver_checks_for_a_miss 0 instr_id: 859
found a miss for CPU: 0 packet->address: 14623904 cycle: 4058 receiver_checks_for_a_miss 0 instr_id: 863
found a miss for CPU: 0 packet->address: 14623905 cycle: 4074 receiver_checks_for_a_miss 0 instr_id: 867
found a miss for CPU: 0 packet->address: 14623906 cycle: 4090 receiver_checks_for_a_miss 0 instr_id: 871
found a miss for CPU: 0 packet->address: 14623907 cycle: 4106 receiver_checks_for_a_miss 0 instr_id: 875
found a miss for CPU: 0 packet->address: 14623908 cycle: 4122 receiver_checks_for_a_miss 0 instr_id: 879
found a miss for CPU: 0 packet->address: 14623909 cycle: 4138 receiver_checks_for_a_miss 0 instr_id: 883
found a miss for CPU: 0 packet->address: 14623910 cycle: 4154 receiver_checks_for_a_miss 0 instr_id: 887
found a miss for CPU: 0 packet->address: 14623911 cycle: 4170 receiver_checks_for_a_miss 0 instr_id: 891
found a miss for CPU: 0 packet->address: 14623912 cycle: 4186 receiver_checks_for_a_miss 0 instr_id: 895
found a miss for CPU: 0 packet->address: 14623913 cycle: 4202 receiver_checks_for_a_miss 0 instr_id: 899
found a miss for CPU: 0 packet->address: 14623914 cycle: 4218 receiver_checks_for_a_miss 0 instr_id: 903
found a miss for CPU: 0 packet->address: 14623915 cycle: 4234 receiver_checks_for_a_miss 0 instr_id: 907
found a miss for CPU: 0 packet->address: 14623916 cycle: 4250 receiver_checks_for_a_miss 0 instr_id: 911
found a miss for CPU: 0 packet->address: 14623917 cycle: 4266 receiver_checks_for_a_miss 0 instr_id: 915
found a miss for CPU: 0 packet->address: 14623918 cycle: 4282 receiver_checks_for_a_miss 0 instr_id: 919
found a miss for CPU: 0 packet->address: 14623919 cycle: 4298 receiver_checks_for_a_miss 0 instr_id: 923
found a miss for CPU: 0 packet->address: 14623920 cycle: 4314 receiver_checks_for_a_miss 0 instr_id: 927
found a miss for CPU: 0 packet->address: 14623921 cycle: 4330 receiver_checks_for_a_miss 0 instr_id: 931
found a miss for CPU: 0 packet->address: 14623922 cycle: 4346 receiver_checks_for_a_miss 0 instr_id: 935
found a miss for CPU: 0 packet->address: 14623923 cycle: 4362 receiver_checks_for_a_miss 0 instr_id: 939
found a miss for CPU: 0 packet->address: 14623924 cycle: 4378 receiver_checks_for_a_miss 0 instr_id: 943
found a miss for CPU: 0 packet->address: 14623925 cycle: 4394 receiver_checks_for_a_miss 0 instr_id: 947
found a miss for CPU: 0 packet->address: 14623926 cycle: 4410 receiver_checks_for_a_miss 0 instr_id: 951
found a miss for CPU: 0 packet->address: 14623927 cycle: 4426 receiver_checks_for_a_miss 0 instr_id: 955
found a miss for CPU: 0 packet->address: 14623928 cycle: 4442 receiver_checks_for_a_miss 0 instr_id: 959
found a miss for CPU: 0 packet->address: 14623929 cycle: 4458 receiver_checks_for_a_miss 0 instr_id: 963
found a miss for CPU: 0 packet->address: 14623930 cycle: 4474 receiver_checks_for_a_miss 0 instr_id: 967
found a miss for CPU: 0 packet->address: 14623931 cycle: 4490 receiver_checks_for_a_miss 0 instr_id: 971
found a miss for CPU: 0 packet->address: 14623932 cycle: 4506 receiver_checks_for_a_miss 0 instr_id: 975
found a miss for CPU: 0 packet->address: 14623933 cycle: 4522 receiver_checks_for_a_miss 0 instr_id: 979
found a miss for CPU: 0 packet->address: 14623934 cycle: 4538 receiver_checks_for_a_miss 0 instr_id: 983
found a miss for CPU: 0 packet->address: 14623935 cycle: 4554 receiver_checks_for_a_miss 0 instr_id: 987
found a miss for CPU: 0 packet->address: 14624000 cycle: 4673 receiver_checks_for_a_miss 0 instr_id: 991
found a miss for CPU: 0 packet->address: 14624001 cycle: 4682 receiver_checks_for_a_miss 0 instr_id: 995
found a miss for CPU: 0 packet->address: 14624002 cycle: 4690 receiver_checks_for_a_miss 0 instr_id: 999
found a miss for CPU: 0 packet->address: 14624003 cycle: 4696 receiver_checks_for_a_miss 0 instr_id: 1003
found a miss for CPU: 0 packet->address: 14624004 cycle: 4698 receiver_checks_for_a_miss 0 instr_id: 1007
found a miss for CPU: 0 packet->address: 14624005 cycle: 4700 receiver_checks_for_a_miss 0 instr_id: 1011
found a miss for CPU: 0 packet->address: 14624006 cycle: 4702 receiver_checks_for_a_miss 0 instr_id: 1015
found a miss for CPU: 0 packet->address: 14624007 cycle: 4704 receiver_checks_for_a_miss 0 instr_id: 1019
found a miss for CPU: 0 packet->address: 14624008 cycle: 4706 receiver_checks_for_a_miss 0 instr_id: 1023
found a miss for CPU: 0 packet->address: 14624009 cycle: 4714 receiver_checks_for_a_miss 0 instr_id: 1027
found a miss for CPU: 0 packet->address: 14624010 cycle: 4730 receiver_checks_for_a_miss 0 instr_id: 1031
found a miss for CPU: 0 packet->address: 14624011 cycle: 4746 receiver_checks_for_a_miss 0 instr_id: 1035
found a miss for CPU: 0 packet->address: 14624012 cycle: 4762 receiver_checks_for_a_miss 0 instr_id: 1039
found a miss for CPU: 0 packet->address: 14624013 cycle: 4778 receiver_checks_for_a_miss 0 instr_id: 1043
found a miss for CPU: 0 packet->address: 14624014 cycle: 4794 receiver_checks_for_a_miss 0 instr_id: 1047
found a miss for CPU: 0 packet->address: 14624015 cycle: 4810 receiver_checks_for_a_miss 0 instr_id: 1051
found a miss for CPU: 0 packet->address: 14624016 cycle: 4826 receiver_checks_for_a_miss 0 instr_id: 1055
found a miss for CPU: 0 packet->address: 14624017 cycle: 4842 receiver_checks_for_a_miss 0 instr_id: 1059
found a miss for CPU: 0 packet->address: 14624018 cycle: 4858 receiver_checks_for_a_miss 0 instr_id: 1063
found a miss for CPU: 0 packet->address: 14624019 cycle: 4874 receiver_checks_for_a_miss 0 instr_id: 1067
found a miss for CPU: 0 packet->address: 14624020 cycle: 4890 receiver_checks_for_a_miss 0 instr_id: 1071
found a miss for CPU: 0 packet->address: 14624021 cycle: 4906 receiver_checks_for_a_miss 0 instr_id: 1075
found a miss for CPU: 0 packet->address: 14624022 cycle: 4922 receiver_checks_for_a_miss 0 instr_id: 1079
found a miss for CPU: 0 packet->address: 14624023 cycle: 4938 receiver_checks_for_a_miss 0 instr_id: 1083
found a miss for CPU: 0 packet->address: 14624024 cycle: 4986 receiver_checks_for_a_miss 0 instr_id: 1087
found a miss for CPU: 0 packet->address: 14624025 cycle: 4994 receiver_checks_for_a_miss 0 instr_id: 1091
found a miss for CPU: 0 packet->address: 14624026 cycle: 5000 receiver_checks_for_a_miss 0 instr_id: 1095
found a miss for CPU: 0 packet->address: 14624027 cycle: 5002 receiver_checks_for_a_miss 0 instr_id: 1099
found a miss for CPU: 0 packet->address: 14624028 cycle: 5018 receiver_checks_for_a_miss 0 instr_id: 1103
found a miss for CPU: 0 packet->address: 14624029 cycle: 5034 receiver_checks_for_a_miss 0 instr_id: 1107
found a miss for CPU: 0 packet->address: 14624030 cycle: 5050 receiver_checks_for_a_miss 0 instr_id: 1111
found a miss for CPU: 0 packet->address: 14624031 cycle: 5066 receiver_checks_for_a_miss 0 instr_id: 1115
found a miss for CPU: 0 packet->address: 14624032 cycle: 5082 receiver_checks_for_a_miss 0 instr_id: 1119
found a miss for CPU: 0 packet->address: 14624033 cycle: 5098 receiver_checks_for_a_miss 0 instr_id: 1123
found a miss for CPU: 0 packet->address: 14624034 cycle: 5114 receiver_checks_for_a_miss 0 instr_id: 1127
found a miss for CPU: 0 packet->address: 14624035 cycle: 5130 receiver_checks_for_a_miss 0 instr_id: 1131
found a miss for CPU: 0 packet->address: 14624036 cycle: 5146 receiver_checks_for_a_miss 0 instr_id: 1135
found a miss for CPU: 0 packet->address: 14624037 cycle: 5162 receiver_checks_for_a_miss 0 instr_id: 1139
found a miss for CPU: 0 packet->address: 14624038 cycle: 5178 receiver_checks_for_a_miss 0 instr_id: 1143
found a miss for CPU: 0 packet->address: 14624039 cycle: 5194 receiver_checks_for_a_miss 0 instr_id: 1147
found a miss for CPU: 0 packet->address: 14624040 cycle: 5210 receiver_checks_for_a_miss 0 instr_id: 1151
found a miss for CPU: 0 packet->address: 14624041 cycle: 5226 receiver_checks_for_a_miss 0 instr_id: 1155
found a miss for CPU: 0 packet->address: 14624042 cycle: 5242 receiver_checks_for_a_miss 0 instr_id: 1159
found a miss for CPU: 0 packet->address: 14624043 cycle: 5258 receiver_checks_for_a_miss 0 instr_id: 1163
found a miss for CPU: 0 packet->address: 14624044 cycle: 5274 receiver_checks_for_a_miss 0 instr_id: 1167
found a miss for CPU: 0 packet->address: 14624045 cycle: 5290 receiver_checks_for_a_miss 0 instr_id: 1171
found a miss for CPU: 0 packet->address: 14624046 cycle: 5306 receiver_checks_for_a_miss 0 instr_id: 1175
found a miss for CPU: 0 packet->address: 14624047 cycle: 5322 receiver_checks_for_a_miss 0 instr_id: 1179
found a miss for CPU: 0 packet->address: 14624048 cycle: 5338 receiver_checks_for_a_miss 0 instr_id: 1183
found a miss for CPU: 0 packet->address: 14624049 cycle: 5354 receiver_checks_for_a_miss 0 instr_id: 1187
found a miss for CPU: 0 packet->address: 14624050 cycle: 5370 receiver_checks_for_a_miss 0 instr_id: 1191
found a miss for CPU: 0 packet->address: 14624051 cycle: 5386 receiver_checks_for_a_miss 0 instr_id: 1195
found a miss for CPU: 0 packet->address: 14624052 cycle: 5402 receiver_checks_for_a_miss 0 instr_id: 1199
found a miss for CPU: 0 packet->address: 14624053 cycle: 5418 receiver_checks_for_a_miss 0 instr_id: 1203
found a miss for CPU: 0 packet->address: 14624054 cycle: 5434 receiver_checks_for_a_miss 0 instr_id: 1207
found a miss for CPU: 0 packet->address: 14624055 cycle: 5450 receiver_checks_for_a_miss 0 instr_id: 1211
found a miss for CPU: 0 packet->address: 14624056 cycle: 5466 receiver_checks_for_a_miss 0 instr_id: 1215
found a miss for CPU: 0 packet->address: 14624057 cycle: 5482 receiver_checks_for_a_miss 0 instr_id: 1219
found a miss for CPU: 0 packet->address: 14624058 cycle: 5498 receiver_checks_for_a_miss 0 instr_id: 1223
found a miss for CPU: 0 packet->address: 14624059 cycle: 5514 receiver_checks_for_a_miss 0 instr_id: 1227
found a miss for CPU: 0 packet->address: 14624060 cycle: 5530 receiver_checks_for_a_miss 0 instr_id: 1231
found a miss for CPU: 0 packet->address: 14624061 cycle: 5546 receiver_checks_for_a_miss 0 instr_id: 1235
found a miss for CPU: 0 packet->address: 14624062 cycle: 5562 receiver_checks_for_a_miss 0 instr_id: 1239
found a miss for CPU: 0 packet->address: 14624063 cycle: 5578 receiver_checks_for_a_miss 0 instr_id: 1243
found a miss for CPU: 0 packet->address: 14624128 cycle: 5697 receiver_checks_for_a_miss 0 instr_id: 1247
found a miss for CPU: 0 packet->address: 14624129 cycle: 5706 receiver_checks_for_a_miss 0 instr_id: 1251
found a miss for CPU: 0 packet->address: 14624130 cycle: 5714 receiver_checks_for_a_miss 0 instr_id: 1255
found a miss for CPU: 0 packet->address: 14624131 cycle: 5720 receiver_checks_for_a_miss 0 instr_id: 1259
found a miss for CPU: 0 packet->address: 14624132 cycle: 5722 receiver_checks_for_a_miss 0 instr_id: 1263
found a miss for CPU: 0 packet->address: 14624133 cycle: 5724 receiver_checks_for_a_miss 0 instr_id: 1267
found a miss for CPU: 0 packet->address: 14624134 cycle: 5726 receiver_checks_for_a_miss 0 instr_id: 1271
found a miss for CPU: 0 packet->address: 14624135 cycle: 5728 receiver_checks_for_a_miss 0 instr_id: 1275
found a miss for CPU: 0 packet->address: 14624136 cycle: 5730 receiver_checks_for_a_miss 0 instr_id: 1279
found a miss for CPU: 0 packet->address: 14624137 cycle: 5738 receiver_checks_for_a_miss 0 instr_id: 1283
found a miss for CPU: 0 packet->address: 14624138 cycle: 5754 receiver_checks_for_a_miss 0 instr_id: 1287
found a miss for CPU: 0 packet->address: 14624139 cycle: 5770 receiver_checks_for_a_miss 0 instr_id: 1291
found a miss for CPU: 0 packet->address: 14624140 cycle: 5786 receiver_checks_for_a_miss 0 instr_id: 1295
found a miss for CPU: 0 packet->address: 14624141 cycle: 5802 receiver_checks_for_a_miss 0 instr_id: 1299
found a miss for CPU: 0 packet->address: 14624142 cycle: 5818 receiver_checks_for_a_miss 0 instr_id: 1303
found a miss for CPU: 0 packet->address: 14624143 cycle: 5834 receiver_checks_for_a_miss 0 instr_id: 1307
found a miss for CPU: 0 packet->address: 14624144 cycle: 5850 receiver_checks_for_a_miss 0 instr_id: 1311
found a miss for CPU: 0 packet->address: 14624145 cycle: 5866 receiver_checks_for_a_miss 0 instr_id: 1315
found a miss for CPU: 0 packet->address: 14624146 cycle: 5882 receiver_checks_for_a_miss 0 instr_id: 1319
found a miss for CPU: 0 packet->address: 14624147 cycle: 5898 receiver_checks_for_a_miss 0 instr_id: 1323
found a miss for CPU: 0 packet->address: 14624148 cycle: 5914 receiver_checks_for_a_miss 0 instr_id: 1327
found a miss for CPU: 0 packet->address: 14624149 cycle: 5930 receiver_checks_for_a_miss 0 instr_id: 1331
found a miss for CPU: 0 packet->address: 14624150 cycle: 5946 receiver_checks_for_a_miss 0 instr_id: 1335
found a miss for CPU: 0 packet->address: 14624151 cycle: 5962 receiver_checks_for_a_miss 0 instr_id: 1339
found a miss for CPU: 0 packet->address: 14624152 cycle: 5978 receiver_checks_for_a_miss 0 instr_id: 1343
found a miss for CPU: 0 packet->address: 14624153 cycle: 5994 receiver_checks_for_a_miss 0 instr_id: 1347
found a miss for CPU: 0 packet->address: 14624154 cycle: 6010 receiver_checks_for_a_miss 0 instr_id: 1351
found a miss for CPU: 0 packet->address: 14624155 cycle: 6026 receiver_checks_for_a_miss 0 instr_id: 1355
found a miss for CPU: 0 packet->address: 14624156 cycle: 6042 receiver_checks_for_a_miss 0 instr_id: 1359
found a miss for CPU: 0 packet->address: 14624157 cycle: 6058 receiver_checks_for_a_miss 0 instr_id: 1363
found a miss for CPU: 0 packet->address: 14624158 cycle: 6074 receiver_checks_for_a_miss 0 instr_id: 1367
found a miss for CPU: 0 packet->address: 14624159 cycle: 6090 receiver_checks_for_a_miss 0 instr_id: 1371
found a miss for CPU: 0 packet->address: 14624160 cycle: 6106 receiver_checks_for_a_miss 0 instr_id: 1375
found a miss for CPU: 0 packet->address: 14624161 cycle: 6122 receiver_checks_for_a_miss 0 instr_id: 1379
found a miss for CPU: 0 packet->address: 14624162 cycle: 6138 receiver_checks_for_a_miss 0 instr_id: 1383
found a miss for CPU: 0 packet->address: 14624163 cycle: 6154 receiver_checks_for_a_miss 0 instr_id: 1387
found a miss for CPU: 0 packet->address: 14624164 cycle: 6170 receiver_checks_for_a_miss 0 instr_id: 1391
found a miss for CPU: 0 packet->address: 14624165 cycle: 6186 receiver_checks_for_a_miss 0 instr_id: 1395
found a miss for CPU: 0 packet->address: 14624166 cycle: 6202 receiver_checks_for_a_miss 0 instr_id: 1399
found a miss for CPU: 0 packet->address: 14624167 cycle: 6218 receiver_checks_for_a_miss 0 instr_id: 1403
found a miss for CPU: 0 packet->address: 14624168 cycle: 6234 receiver_checks_for_a_miss 0 instr_id: 1407
found a miss for CPU: 0 packet->address: 14624169 cycle: 6250 receiver_checks_for_a_miss 0 instr_id: 1411
found a miss for CPU: 0 packet->address: 14624170 cycle: 6266 receiver_checks_for_a_miss 0 instr_id: 1415
found a miss for CPU: 0 packet->address: 14624171 cycle: 6282 receiver_checks_for_a_miss 0 instr_id: 1419
found a miss for CPU: 0 packet->address: 14624172 cycle: 6298 receiver_checks_for_a_miss 0 instr_id: 1423
found a miss for CPU: 0 packet->address: 14624173 cycle: 6314 receiver_checks_for_a_miss 0 instr_id: 1427
found a miss for CPU: 0 packet->address: 14624174 cycle: 6330 receiver_checks_for_a_miss 0 instr_id: 1431
found a miss for CPU: 0 packet->address: 14624175 cycle: 6346 receiver_checks_for_a_miss 0 instr_id: 1435
found a miss for CPU: 0 packet->address: 14624176 cycle: 6362 receiver_checks_for_a_miss 0 instr_id: 1439
found a miss for CPU: 0 packet->address: 14624177 cycle: 6378 receiver_checks_for_a_miss 0 instr_id: 1443
found a miss for CPU: 0 packet->address: 14624178 cycle: 6394 receiver_checks_for_a_miss 0 instr_id: 1447
found a miss for CPU: 0 packet->address: 14624179 cycle: 6410 receiver_checks_for_a_miss 0 instr_id: 1451
found a miss for CPU: 0 packet->address: 14624180 cycle: 6426 receiver_checks_for_a_miss 0 instr_id: 1455
found a miss for CPU: 0 packet->address: 14624181 cycle: 6442 receiver_checks_for_a_miss 0 instr_id: 1459
found a miss for CPU: 0 packet->address: 14624182 cycle: 6458 receiver_checks_for_a_miss 0 instr_id: 1463
found a miss for CPU: 0 packet->address: 14624183 cycle: 6474 receiver_checks_for_a_miss 0 instr_id: 1467
found a miss for CPU: 0 packet->address: 14624184 cycle: 6490 receiver_checks_for_a_miss 0 instr_id: 1471
found a miss for CPU: 0 packet->address: 14624185 cycle: 6506 receiver_checks_for_a_miss 0 instr_id: 1475
found a miss for CPU: 0 packet->address: 14624186 cycle: 6522 receiver_checks_for_a_miss 0 instr_id: 1479
found a miss for CPU: 0 packet->address: 14624187 cycle: 6538 receiver_checks_for_a_miss 0 instr_id: 1483
found a miss for CPU: 0 packet->address: 14624188 cycle: 6554 receiver_checks_for_a_miss 0 instr_id: 1487
found a miss for CPU: 0 packet->address: 14624189 cycle: 6570 receiver_checks_for_a_miss 0 instr_id: 1491
found a miss for CPU: 0 packet->address: 14624190 cycle: 6586 receiver_checks_for_a_miss 0 instr_id: 1495
found a miss for CPU: 0 packet->address: 14624191 cycle: 6602 receiver_checks_for_a_miss 0 instr_id: 1499
found a miss for CPU: 0 packet->address: 15347840 cycle: 6721 receiver_checks_for_a_miss 0 instr_id: 1503
found a miss for CPU: 0 packet->address: 15347841 cycle: 6730 receiver_checks_for_a_miss 0 instr_id: 1507
found a miss for CPU: 0 packet->address: 15347842 cycle: 6738 receiver_checks_for_a_miss 0 instr_id: 1511
found a miss for CPU: 0 packet->address: 15347843 cycle: 6744 receiver_checks_for_a_miss 0 instr_id: 1515
found a miss for CPU: 0 packet->address: 15347844 cycle: 6746 receiver_checks_for_a_miss 0 instr_id: 1519
found a miss for CPU: 0 packet->address: 15347845 cycle: 6748 receiver_checks_for_a_miss 0 instr_id: 1523
found a miss for CPU: 0 packet->address: 15347846 cycle: 6750 receiver_checks_for_a_miss 0 instr_id: 1527
found a miss for CPU: 0 packet->address: 15347847 cycle: 6752 receiver_checks_for_a_miss 0 instr_id: 1531
found a miss for CPU: 0 packet->address: 15347848 cycle: 6754 receiver_checks_for_a_miss 0 instr_id: 1535
found a miss for CPU: 0 packet->address: 15347849 cycle: 6762 receiver_checks_for_a_miss 0 instr_id: 1539
found a miss for CPU: 0 packet->address: 15347850 cycle: 6778 receiver_checks_for_a_miss 0 instr_id: 1543
found a miss for CPU: 0 packet->address: 15347851 cycle: 6794 receiver_checks_for_a_miss 0 instr_id: 1547
found a miss for CPU: 0 packet->address: 15347852 cycle: 6810 receiver_checks_for_a_miss 0 instr_id: 1551
found a miss for CPU: 0 packet->address: 15347853 cycle: 6826 receiver_checks_for_a_miss 0 instr_id: 1555
found a miss for CPU: 0 packet->address: 15347854 cycle: 6842 receiver_checks_for_a_miss 0 instr_id: 1559
found a miss for CPU: 0 packet->address: 15347855 cycle: 6858 receiver_checks_for_a_miss 0 instr_id: 1563
found a miss for CPU: 0 packet->address: 15347856 cycle: 6874 receiver_checks_for_a_miss 0 instr_id: 1567
found a miss for CPU: 0 packet->address: 15347857 cycle: 6890 receiver_checks_for_a_miss 0 instr_id: 1571
found a miss for CPU: 0 packet->address: 15347858 cycle: 6906 receiver_checks_for_a_miss 0 instr_id: 1575
found a miss for CPU: 0 packet->address: 15347859 cycle: 6922 receiver_checks_for_a_miss 0 instr_id: 1579
found a miss for CPU: 0 packet->address: 15347860 cycle: 6938 receiver_checks_for_a_miss 0 instr_id: 1583
found a miss for CPU: 0 packet->address: 15347861 cycle: 6954 receiver_checks_for_a_miss 0 instr_id: 1587
found a miss for CPU: 0 packet->address: 15347862 cycle: 6970 receiver_checks_for_a_miss 0 instr_id: 1591
found a miss for CPU: 0 packet->address: 15347863 cycle: 6986 receiver_checks_for_a_miss 0 instr_id: 1595
found a miss for CPU: 0 packet->address: 15347864 cycle: 7034 receiver_checks_for_a_miss 0 instr_id: 1599
found a miss for CPU: 0 packet->address: 15347865 cycle: 7042 receiver_checks_for_a_miss 0 instr_id: 1603
found a miss for CPU: 0 packet->address: 15347866 cycle: 7048 receiver_checks_for_a_miss 0 instr_id: 1607
found a miss for CPU: 0 packet->address: 15347867 cycle: 7050 receiver_checks_for_a_miss 0 instr_id: 1611
found a miss for CPU: 0 packet->address: 15347868 cycle: 7066 receiver_checks_for_a_miss 0 instr_id: 1615
found a miss for CPU: 0 packet->address: 15347869 cycle: 7082 receiver_checks_for_a_miss 0 instr_id: 1619
found a miss for CPU: 0 packet->address: 15347870 cycle: 7098 receiver_checks_for_a_miss 0 instr_id: 1623
found a miss for CPU: 0 packet->address: 15347871 cycle: 7114 receiver_checks_for_a_miss 0 instr_id: 1627
found a miss for CPU: 0 packet->address: 15347872 cycle: 7130 receiver_checks_for_a_miss 0 instr_id: 1631
found a miss for CPU: 0 packet->address: 15347873 cycle: 7146 receiver_checks_for_a_miss 0 instr_id: 1635
found a miss for CPU: 0 packet->address: 15347874 cycle: 7162 receiver_checks_for_a_miss 0 instr_id: 1639
found a miss for CPU: 0 packet->address: 15347875 cycle: 7178 receiver_checks_for_a_miss 0 instr_id: 1643
found a miss for CPU: 0 packet->address: 15347876 cycle: 7194 receiver_checks_for_a_miss 0 instr_id: 1647
found a miss for CPU: 0 packet->address: 15347877 cycle: 7210 receiver_checks_for_a_miss 0 instr_id: 1651
found a miss for CPU: 0 packet->address: 15347878 cycle: 7226 receiver_checks_for_a_miss 0 instr_id: 1655
found a miss for CPU: 0 packet->address: 15347879 cycle: 7242 receiver_checks_for_a_miss 0 instr_id: 1659
found a miss for CPU: 0 packet->address: 15347880 cycle: 7258 receiver_checks_for_a_miss 0 instr_id: 1663
found a miss for CPU: 0 packet->address: 15347881 cycle: 7274 receiver_checks_for_a_miss 0 instr_id: 1667
found a miss for CPU: 0 packet->address: 15347882 cycle: 7290 receiver_checks_for_a_miss 0 instr_id: 1671
found a miss for CPU: 0 packet->address: 15347883 cycle: 7306 receiver_checks_for_a_miss 0 instr_id: 1675
found a miss for CPU: 0 packet->address: 15347884 cycle: 7322 receiver_checks_for_a_miss 0 instr_id: 1679
found a miss for CPU: 0 packet->address: 15347885 cycle: 7338 receiver_checks_for_a_miss 0 instr_id: 1683
found a miss for CPU: 0 packet->address: 15347886 cycle: 7354 receiver_checks_for_a_miss 0 instr_id: 1687
found a miss for CPU: 0 packet->address: 15347887 cycle: 7370 receiver_checks_for_a_miss 0 instr_id: 1691
found a miss for CPU: 0 packet->address: 15347888 cycle: 7386 receiver_checks_for_a_miss 0 instr_id: 1695
found a miss for CPU: 0 packet->address: 15347889 cycle: 7402 receiver_checks_for_a_miss 0 instr_id: 1699
found a miss for CPU: 0 packet->address: 15347890 cycle: 7418 receiver_checks_for_a_miss 0 instr_id: 1703
found a miss for CPU: 0 packet->address: 15347891 cycle: 7434 receiver_checks_for_a_miss 0 instr_id: 1707
found a miss for CPU: 0 packet->address: 15347892 cycle: 7450 receiver_checks_for_a_miss 0 instr_id: 1711
found a miss for CPU: 0 packet->address: 15347893 cycle: 7466 receiver_checks_for_a_miss 0 instr_id: 1715
found a miss for CPU: 0 packet->address: 15347894 cycle: 7482 receiver_checks_for_a_miss 0 instr_id: 1719
found a miss for CPU: 0 packet->address: 15347895 cycle: 7498 receiver_checks_for_a_miss 0 instr_id: 1723
found a miss for CPU: 0 packet->address: 15347896 cycle: 7514 receiver_checks_for_a_miss 0 instr_id: 1727
found a miss for CPU: 0 packet->address: 15347897 cycle: 7530 receiver_checks_for_a_miss 0 instr_id: 1731
found a miss for CPU: 0 packet->address: 15347898 cycle: 7546 receiver_checks_for_a_miss 0 instr_id: 1735
found a miss for CPU: 0 packet->address: 15347899 cycle: 7562 receiver_checks_for_a_miss 0 instr_id: 1739
found a miss for CPU: 0 packet->address: 15347900 cycle: 7578 receiver_checks_for_a_miss 0 instr_id: 1743
found a miss for CPU: 0 packet->address: 15347901 cycle: 7594 receiver_checks_for_a_miss 0 instr_id: 1747
found a miss for CPU: 0 packet->address: 15347902 cycle: 7610 receiver_checks_for_a_miss 0 instr_id: 1751
found a miss for CPU: 0 packet->address: 15347903 cycle: 7626 receiver_checks_for_a_miss 0 instr_id: 1755
found a miss for CPU: 0 packet->address: 15347968 cycle: 7745 receiver_checks_for_a_miss 0 instr_id: 1759
found a miss for CPU: 0 packet->address: 15347969 cycle: 7754 receiver_checks_for_a_miss 0 instr_id: 1763
found a miss for CPU: 0 packet->address: 15347970 cycle: 7762 receiver_checks_for_a_miss 0 instr_id: 1767
found a miss for CPU: 0 packet->address: 15347971 cycle: 7768 receiver_checks_for_a_miss 0 instr_id: 1771
found a miss for CPU: 0 packet->address: 15347972 cycle: 7770 receiver_checks_for_a_miss 0 instr_id: 1775
found a miss for CPU: 0 packet->address: 15347973 cycle: 7772 receiver_checks_for_a_miss 0 instr_id: 1779
found a miss for CPU: 0 packet->address: 15347974 cycle: 7774 receiver_checks_for_a_miss 0 instr_id: 1783
found a miss for CPU: 0 packet->address: 15347975 cycle: 7776 receiver_checks_for_a_miss 0 instr_id: 1787
found a miss for CPU: 0 packet->address: 15347976 cycle: 7778 receiver_checks_for_a_miss 0 instr_id: 1791
found a miss for CPU: 0 packet->address: 15347977 cycle: 7786 receiver_checks_for_a_miss 0 instr_id: 1795
found a miss for CPU: 0 packet->address: 15347978 cycle: 7802 receiver_checks_for_a_miss 0 instr_id: 1799
found a miss for CPU: 0 packet->address: 15347979 cycle: 7818 receiver_checks_for_a_miss 0 instr_id: 1803
found a miss for CPU: 0 packet->address: 15347980 cycle: 7834 receiver_checks_for_a_miss 0 instr_id: 1807
found a miss for CPU: 0 packet->address: 15347981 cycle: 7850 receiver_checks_for_a_miss 0 instr_id: 1811
found a miss for CPU: 0 packet->address: 15347982 cycle: 7866 receiver_checks_for_a_miss 0 instr_id: 1815
found a miss for CPU: 0 packet->address: 15347983 cycle: 7882 receiver_checks_for_a_miss 0 instr_id: 1819
found a miss for CPU: 0 packet->address: 15347984 cycle: 7898 receiver_checks_for_a_miss 0 instr_id: 1823
found a miss for CPU: 0 packet->address: 15347985 cycle: 7914 receiver_checks_for_a_miss 0 instr_id: 1827
found a miss for CPU: 0 packet->address: 15347986 cycle: 7930 receiver_checks_for_a_miss 0 instr_id: 1831
found a miss for CPU: 0 packet->address: 15347987 cycle: 7946 receiver_checks_for_a_miss 0 instr_id: 1835
found a miss for CPU: 0 packet->address: 15347988 cycle: 7962 receiver_checks_for_a_miss 0 instr_id: 1839
found a miss for CPU: 0 packet->address: 15347989 cycle: 7978 receiver_checks_for_a_miss 0 instr_id: 1843
found a miss for CPU: 0 packet->address: 15347990 cycle: 7994 receiver_checks_for_a_miss 0 instr_id: 1847
found a miss for CPU: 0 packet->address: 15347991 cycle: 8010 receiver_checks_for_a_miss 0 instr_id: 1851
found a miss for CPU: 0 packet->address: 15347992 cycle: 8058 receiver_checks_for_a_miss 0 instr_id: 1855
found a miss for CPU: 0 packet->address: 15347993 cycle: 8066 receiver_checks_for_a_miss 0 instr_id: 1859
found a miss for CPU: 0 packet->address: 15347994 cycle: 8072 receiver_checks_for_a_miss 0 instr_id: 1863
found a miss for CPU: 0 packet->address: 15347995 cycle: 8074 receiver_checks_for_a_miss 0 instr_id: 1867
found a miss for CPU: 0 packet->address: 15347996 cycle: 8090 receiver_checks_for_a_miss 0 instr_id: 1871
found a miss for CPU: 0 packet->address: 15347997 cycle: 8106 receiver_checks_for_a_miss 0 instr_id: 1875
found a miss for CPU: 0 packet->address: 15347998 cycle: 8122 receiver_checks_for_a_miss 0 instr_id: 1879
found a miss for CPU: 0 packet->address: 15347999 cycle: 8138 receiver_checks_for_a_miss 0 instr_id: 1883
found a miss for CPU: 0 packet->address: 15348000 cycle: 8154 receiver_checks_for_a_miss 0 instr_id: 1887
found a miss for CPU: 0 packet->address: 15348001 cycle: 8170 receiver_checks_for_a_miss 0 instr_id: 1891
found a miss for CPU: 0 packet->address: 15348002 cycle: 8186 receiver_checks_for_a_miss 0 instr_id: 1895
found a miss for CPU: 0 packet->address: 15348003 cycle: 8202 receiver_checks_for_a_miss 0 instr_id: 1899
found a miss for CPU: 0 packet->address: 15348004 cycle: 8218 receiver_checks_for_a_miss 0 instr_id: 1903
found a miss for CPU: 0 packet->address: 15348005 cycle: 8234 receiver_checks_for_a_miss 0 instr_id: 1907
found a miss for CPU: 0 packet->address: 15348006 cycle: 8250 receiver_checks_for_a_miss 0 instr_id: 1911
found a miss for CPU: 0 packet->address: 15348007 cycle: 8266 receiver_checks_for_a_miss 0 instr_id: 1915
found a miss for CPU: 0 packet->address: 15348008 cycle: 8282 receiver_checks_for_a_miss 0 instr_id: 1919
found a miss for CPU: 0 packet->address: 15348009 cycle: 8298 receiver_checks_for_a_miss 0 instr_id: 1923
found a miss for CPU: 0 packet->address: 15348010 cycle: 8314 receiver_checks_for_a_miss 0 instr_id: 1927
found a miss for CPU: 0 packet->address: 15348011 cycle: 8330 receiver_checks_for_a_miss 0 instr_id: 1931
found a miss for CPU: 0 packet->address: 15348012 cycle: 8346 receiver_checks_for_a_miss 0 instr_id: 1935
found a miss for CPU: 0 packet->address: 15348013 cycle: 8362 receiver_checks_for_a_miss 0 instr_id: 1939
found a miss for CPU: 0 packet->address: 15348014 cycle: 8378 receiver_checks_for_a_miss 0 instr_id: 1943
found a miss for CPU: 0 packet->address: 15348015 cycle: 8394 receiver_checks_for_a_miss 0 instr_id: 1947
found a miss for CPU: 0 packet->address: 15348016 cycle: 8410 receiver_checks_for_a_miss 0 instr_id: 1951
found a miss for CPU: 0 packet->address: 15348017 cycle: 8426 receiver_checks_for_a_miss 0 instr_id: 1955
found a miss for CPU: 0 packet->address: 15348018 cycle: 8442 receiver_checks_for_a_miss 0 instr_id: 1959
found a miss for CPU: 0 packet->address: 15348019 cycle: 8458 receiver_checks_for_a_miss 0 instr_id: 1963
found a miss for CPU: 0 packet->address: 15348020 cycle: 8474 receiver_checks_for_a_miss 0 instr_id: 1967
found a miss for CPU: 0 packet->address: 15348021 cycle: 8490 receiver_checks_for_a_miss 0 instr_id: 1971
found a miss for CPU: 0 packet->address: 15348022 cycle: 8506 receiver_checks_for_a_miss 0 instr_id: 1975
found a miss for CPU: 0 packet->address: 15348023 cycle: 8522 receiver_checks_for_a_miss 0 instr_id: 1979
found a miss for CPU: 0 packet->address: 15348024 cycle: 8538 receiver_checks_for_a_miss 0 instr_id: 1983
found a miss for CPU: 0 packet->address: 15348025 cycle: 8554 receiver_checks_for_a_miss 0 instr_id: 1987
found a miss for CPU: 0 packet->address: 15348026 cycle: 8570 receiver_checks_for_a_miss 0 instr_id: 1991
found a miss for CPU: 0 packet->address: 15348027 cycle: 8586 receiver_checks_for_a_miss 0 instr_id: 1995
found a miss for CPU: 0 packet->address: 15348028 cycle: 8602 receiver_checks_for_a_miss 0 instr_id: 1999
found a miss for CPU: 0 packet->address: 15348029 cycle: 8618 receiver_checks_for_a_miss 0 instr_id: 2003
found a miss for CPU: 0 packet->address: 15348030 cycle: 8634 receiver_checks_for_a_miss 0 instr_id: 2007
found a miss for CPU: 0 packet->address: 15348031 cycle: 8650 receiver_checks_for_a_miss 0 instr_id: 2011
found a miss for CPU: 0 packet->address: 15348096 cycle: 8769 receiver_checks_for_a_miss 0 instr_id: 2015
found a miss for CPU: 0 packet->address: 15348097 cycle: 8778 receiver_checks_for_a_miss 0 instr_id: 2019
found a miss for CPU: 0 packet->address: 15348098 cycle: 8786 receiver_checks_for_a_miss 0 instr_id: 2023
found a miss for CPU: 0 packet->address: 15348099 cycle: 8792 receiver_checks_for_a_miss 0 instr_id: 2027
found a miss for CPU: 0 packet->address: 15348100 cycle: 8794 receiver_checks_for_a_miss 0 instr_id: 2031
found a miss for CPU: 0 packet->address: 15348101 cycle: 8796 receiver_checks_for_a_miss 0 instr_id: 2035
found a miss for CPU: 0 packet->address: 15348102 cycle: 8798 receiver_checks_for_a_miss 0 instr_id: 2039
found a miss for CPU: 0 packet->address: 15348103 cycle: 8800 receiver_checks_for_a_miss 0 instr_id: 2043
found a miss for CPU: 0 packet->address: 15348104 cycle: 8802 receiver_checks_for_a_miss 0 instr_id: 2047
found a miss for CPU: 0 packet->address: 15348105 cycle: 8810 receiver_checks_for_a_miss 0 instr_id: 2051
found a miss for CPU: 0 packet->address: 15348106 cycle: 8826 receiver_checks_for_a_miss 0 instr_id: 2055
found a miss for CPU: 0 packet->address: 15348107 cycle: 8842 receiver_checks_for_a_miss 0 instr_id: 2059
found a miss for CPU: 0 packet->address: 15348108 cycle: 8858 receiver_checks_for_a_miss 0 instr_id: 2063
found a miss for CPU: 0 packet->address: 15348109 cycle: 8874 receiver_checks_for_a_miss 0 instr_id: 2067
found a miss for CPU: 0 packet->address: 15348110 cycle: 8890 receiver_checks_for_a_miss 0 instr_id: 2071
found a miss for CPU: 0 packet->address: 15348111 cycle: 8906 receiver_checks_for_a_miss 0 instr_id: 2075
found a miss for CPU: 0 packet->address: 15348112 cycle: 8922 receiver_checks_for_a_miss 0 instr_id: 2079
found a miss for CPU: 0 packet->address: 15348113 cycle: 8938 receiver_checks_for_a_miss 0 instr_id: 2083
found a miss for CPU: 0 packet->address: 15348114 cycle: 8954 receiver_checks_for_a_miss 0 instr_id: 2087
found a miss for CPU: 0 packet->address: 15348115 cycle: 8970 receiver_checks_for_a_miss 0 instr_id: 2091
found a miss for CPU: 0 packet->address: 15348116 cycle: 8986 receiver_checks_for_a_miss 0 instr_id: 2095
found a miss for CPU: 0 packet->address: 15348117 cycle: 9002 receiver_checks_for_a_miss 0 instr_id: 2099
found a miss for CPU: 0 packet->address: 15348118 cycle: 9018 receiver_checks_for_a_miss 0 instr_id: 2103
found a miss for CPU: 0 packet->address: 15348119 cycle: 9034 receiver_checks_for_a_miss 0 instr_id: 2107
found a miss for CPU: 0 packet->address: 15348120 cycle: 9050 receiver_checks_for_a_miss 0 instr_id: 2111
found a miss for CPU: 0 packet->address: 15348121 cycle: 9066 receiver_checks_for_a_miss 0 instr_id: 2115
found a miss for CPU: 0 packet->address: 15348122 cycle: 9082 receiver_checks_for_a_miss 0 instr_id: 2119
found a miss for CPU: 0 packet->address: 15348123 cycle: 9098 receiver_checks_for_a_miss 0 instr_id: 2123
found a miss for CPU: 0 packet->address: 15348124 cycle: 9114 receiver_checks_for_a_miss 0 instr_id: 2127
found a miss for CPU: 0 packet->address: 15348125 cycle: 9130 receiver_checks_for_a_miss 0 instr_id: 2131
found a miss for CPU: 0 packet->address: 15348126 cycle: 9146 receiver_checks_for_a_miss 0 instr_id: 2135
found a miss for CPU: 0 packet->address: 15348127 cycle: 9162 receiver_checks_for_a_miss 0 instr_id: 2139
found a miss for CPU: 0 packet->address: 15348128 cycle: 9178 receiver_checks_for_a_miss 0 instr_id: 2143
found a miss for CPU: 0 packet->address: 15348129 cycle: 9194 receiver_checks_for_a_miss 0 instr_id: 2147
found a miss for CPU: 0 packet->address: 15348130 cycle: 9210 receiver_checks_for_a_miss 0 instr_id: 2151
found a miss for CPU: 0 packet->address: 15348131 cycle: 9226 receiver_checks_for_a_miss 0 instr_id: 2155
found a miss for CPU: 0 packet->address: 15348132 cycle: 9242 receiver_checks_for_a_miss 0 instr_id: 2159
found a miss for CPU: 0 packet->address: 15348133 cycle: 9258 receiver_checks_for_a_miss 0 instr_id: 2163
found a miss for CPU: 0 packet->address: 15348134 cycle: 9274 receiver_checks_for_a_miss 0 instr_id: 2167
found a miss for CPU: 0 packet->address: 15348135 cycle: 9290 receiver_checks_for_a_miss 0 instr_id: 2171
found a miss for CPU: 0 packet->address: 15348136 cycle: 9306 receiver_checks_for_a_miss 0 instr_id: 2175
found a miss for CPU: 0 packet->address: 15348137 cycle: 9322 receiver_checks_for_a_miss 0 instr_id: 2179
found a miss for CPU: 0 packet->address: 15348138 cycle: 9338 receiver_checks_for_a_miss 0 instr_id: 2183
found a miss for CPU: 0 packet->address: 15348139 cycle: 9354 receiver_checks_for_a_miss 0 instr_id: 2187
found a miss for CPU: 0 packet->address: 15348140 cycle: 9370 receiver_checks_for_a_miss 0 instr_id: 2191
found a miss for CPU: 0 packet->address: 15348141 cycle: 9386 receiver_checks_for_a_miss 0 instr_id: 2195
found a miss for CPU: 0 packet->address: 15348142 cycle: 9402 receiver_checks_for_a_miss 0 instr_id: 2199
found a miss for CPU: 0 packet->address: 15348143 cycle: 9418 receiver_checks_for_a_miss 0 instr_id: 2203
found a miss for CPU: 0 packet->address: 15348144 cycle: 9434 receiver_checks_for_a_miss 0 instr_id: 2207
found a miss for CPU: 0 packet->address: 15348145 cycle: 9450 receiver_checks_for_a_miss 0 instr_id: 2211
found a miss for CPU: 0 packet->address: 15348146 cycle: 9466 receiver_checks_for_a_miss 0 instr_id: 2215
found a miss for CPU: 0 packet->address: 15348147 cycle: 9482 receiver_checks_for_a_miss 0 instr_id: 2219
found a miss for CPU: 0 packet->address: 15348148 cycle: 9498 receiver_checks_for_a_miss 0 instr_id: 2223
found a miss for CPU: 0 packet->address: 15348149 cycle: 9514 receiver_checks_for_a_miss 0 instr_id: 2227
found a miss for CPU: 0 packet->address: 15348150 cycle: 9530 receiver_checks_for_a_miss 0 instr_id: 2231
found a miss for CPU: 0 packet->address: 15348151 cycle: 9546 receiver_checks_for_a_miss 0 instr_id: 2235
found a miss for CPU: 0 packet->address: 15348152 cycle: 9562 receiver_checks_for_a_miss 0 instr_id: 2239
found a miss for CPU: 0 packet->address: 15348153 cycle: 9578 receiver_checks_for_a_miss 0 instr_id: 2243
found a miss for CPU: 0 packet->address: 15348154 cycle: 9594 receiver_checks_for_a_miss 0 instr_id: 2247
found a miss for CPU: 0 packet->address: 15348155 cycle: 9610 receiver_checks_for_a_miss 0 instr_id: 2251
found a miss for CPU: 0 packet->address: 15348156 cycle: 9626 receiver_checks_for_a_miss 0 instr_id: 2255
found a miss for CPU: 0 packet->address: 15348157 cycle: 9642 receiver_checks_for_a_miss 0 instr_id: 2259
found a miss for CPU: 0 packet->address: 15348158 cycle: 9658 receiver_checks_for_a_miss 0 instr_id: 2263
found a miss for CPU: 0 packet->address: 15348159 cycle: 9674 receiver_checks_for_a_miss 0 instr_id: 2267
found a miss for CPU: 0 packet->address: 15348224 cycle: 9793 receiver_checks_for_a_miss 0 instr_id: 2271
found a miss for CPU: 0 packet->address: 15348225 cycle: 9802 receiver_checks_for_a_miss 0 instr_id: 2275
found a miss for CPU: 0 packet->address: 15348226 cycle: 9810 receiver_checks_for_a_miss 0 instr_id: 2279
found a miss for CPU: 0 packet->address: 15348227 cycle: 9816 receiver_checks_for_a_miss 0 instr_id: 2283
found a miss for CPU: 0 packet->address: 15348228 cycle: 9818 receiver_checks_for_a_miss 0 instr_id: 2287
found a miss for CPU: 0 packet->address: 15348229 cycle: 9820 receiver_checks_for_a_miss 0 instr_id: 2291
found a miss for CPU: 0 packet->address: 15348230 cycle: 9822 receiver_checks_for_a_miss 0 instr_id: 2295
found a miss for CPU: 0 packet->address: 15348231 cycle: 9824 receiver_checks_for_a_miss 0 instr_id: 2299
found a miss for CPU: 0 packet->address: 15348232 cycle: 9826 receiver_checks_for_a_miss 0 instr_id: 2303
found a miss for CPU: 0 packet->address: 15348233 cycle: 9834 receiver_checks_for_a_miss 0 instr_id: 2307
found a miss for CPU: 0 packet->address: 15348234 cycle: 9850 receiver_checks_for_a_miss 0 instr_id: 2311
found a miss for CPU: 0 packet->address: 15348235 cycle: 9866 receiver_checks_for_a_miss 0 instr_id: 2315
found a miss for CPU: 0 packet->address: 15348236 cycle: 9882 receiver_checks_for_a_miss 0 instr_id: 2319
found a miss for CPU: 0 packet->address: 15348237 cycle: 9898 receiver_checks_for_a_miss 0 instr_id: 2323
found a miss for CPU: 0 packet->address: 15348238 cycle: 9914 receiver_checks_for_a_miss 0 instr_id: 2327
found a miss for CPU: 0 packet->address: 15348239 cycle: 9930 receiver_checks_for_a_miss 0 instr_id: 2331
found a miss for CPU: 0 packet->address: 15348240 cycle: 9946 receiver_checks_for_a_miss 0 instr_id: 2335
found a miss for CPU: 0 packet->address: 15348241 cycle: 9962 receiver_checks_for_a_miss 0 instr_id: 2339
found a miss for CPU: 0 packet->address: 15348242 cycle: 9978 receiver_checks_for_a_miss 0 instr_id: 2343
found a miss for CPU: 0 packet->address: 15348243 cycle: 9994 receiver_checks_for_a_miss 0 instr_id: 2347
found a miss for CPU: 0 packet->address: 15348244 cycle: 10010 receiver_checks_for_a_miss 0 instr_id: 2351
found a miss for CPU: 0 packet->address: 15348245 cycle: 10026 receiver_checks_for_a_miss 0 instr_id: 2355
found a miss for CPU: 0 packet->address: 15348246 cycle: 10042 receiver_checks_for_a_miss 0 instr_id: 2359
found a miss for CPU: 0 packet->address: 15348247 cycle: 10058 receiver_checks_for_a_miss 0 instr_id: 2363
found a miss for CPU: 0 packet->address: 15348248 cycle: 10106 receiver_checks_for_a_miss 0 instr_id: 2367
found a miss for CPU: 0 packet->address: 15348249 cycle: 10114 receiver_checks_for_a_miss 0 instr_id: 2371
found a miss for CPU: 0 packet->address: 15348250 cycle: 10120 receiver_checks_for_a_miss 0 instr_id: 2375
found a miss for CPU: 0 packet->address: 15348251 cycle: 10122 receiver_checks_for_a_miss 0 instr_id: 2379
found a miss for CPU: 0 packet->address: 15348252 cycle: 10138 receiver_checks_for_a_miss 0 instr_id: 2383
found a miss for CPU: 0 packet->address: 15348253 cycle: 10154 receiver_checks_for_a_miss 0 instr_id: 2387
found a miss for CPU: 0 packet->address: 15348254 cycle: 10170 receiver_checks_for_a_miss 0 instr_id: 2391
found a miss for CPU: 0 packet->address: 15348255 cycle: 10186 receiver_checks_for_a_miss 0 instr_id: 2395
found a miss for CPU: 0 packet->address: 15348256 cycle: 10202 receiver_checks_for_a_miss 0 instr_id: 2399
found a miss for CPU: 0 packet->address: 15348257 cycle: 10218 receiver_checks_for_a_miss 0 instr_id: 2403
found a miss for CPU: 0 packet->address: 15348258 cycle: 10234 receiver_checks_for_a_miss 0 instr_id: 2407
found a miss for CPU: 0 packet->address: 15348259 cycle: 10250 receiver_checks_for_a_miss 0 instr_id: 2411
found a miss for CPU: 0 packet->address: 15348260 cycle: 10266 receiver_checks_for_a_miss 0 instr_id: 2415
found a miss for CPU: 0 packet->address: 15348261 cycle: 10282 receiver_checks_for_a_miss 0 instr_id: 2419
found a miss for CPU: 0 packet->address: 15348262 cycle: 10298 receiver_checks_for_a_miss 0 instr_id: 2423
found a miss for CPU: 0 packet->address: 15348263 cycle: 10314 receiver_checks_for_a_miss 0 instr_id: 2427
found a miss for CPU: 0 packet->address: 15348264 cycle: 10330 receiver_checks_for_a_miss 0 instr_id: 2431
found a miss for CPU: 0 packet->address: 15348265 cycle: 10346 receiver_checks_for_a_miss 0 instr_id: 2435
found a miss for CPU: 0 packet->address: 15348266 cycle: 10362 receiver_checks_for_a_miss 0 instr_id: 2439
found a miss for CPU: 0 packet->address: 15348267 cycle: 10378 receiver_checks_for_a_miss 0 instr_id: 2443
found a miss for CPU: 0 packet->address: 15348268 cycle: 10394 receiver_checks_for_a_miss 0 instr_id: 2447
found a miss for CPU: 0 packet->address: 15348269 cycle: 10410 receiver_checks_for_a_miss 0 instr_id: 2451
found a miss for CPU: 0 packet->address: 15348270 cycle: 10426 receiver_checks_for_a_miss 0 instr_id: 2455
found a miss for CPU: 0 packet->address: 15348271 cycle: 10442 receiver_checks_for_a_miss 0 instr_id: 2459
found a miss for CPU: 0 packet->address: 15348272 cycle: 10458 receiver_checks_for_a_miss 0 instr_id: 2463
found a miss for CPU: 0 packet->address: 15348273 cycle: 10474 receiver_checks_for_a_miss 0 instr_id: 2467
found a miss for CPU: 0 packet->address: 15348274 cycle: 10490 receiver_checks_for_a_miss 0 instr_id: 2471
found a miss for CPU: 0 packet->address: 15348275 cycle: 10506 receiver_checks_for_a_miss 0 instr_id: 2475
found a miss for CPU: 0 packet->address: 15348276 cycle: 10522 receiver_checks_for_a_miss 0 instr_id: 2479
found a miss for CPU: 0 packet->address: 15348277 cycle: 10538 receiver_checks_for_a_miss 0 instr_id: 2483
found a miss for CPU: 0 packet->address: 15348278 cycle: 10554 receiver_checks_for_a_miss 0 instr_id: 2487
found a miss for CPU: 0 packet->address: 15348279 cycle: 10570 receiver_checks_for_a_miss 0 instr_id: 2491
found a miss for CPU: 0 packet->address: 15348280 cycle: 10586 receiver_checks_for_a_miss 0 instr_id: 2495
found a miss for CPU: 0 packet->address: 15348281 cycle: 10602 receiver_checks_for_a_miss 0 instr_id: 2499
found a miss for CPU: 0 packet->address: 15348282 cycle: 10618 receiver_checks_for_a_miss 0 instr_id: 2503
found a miss for CPU: 0 packet->address: 15348283 cycle: 10634 receiver_checks_for_a_miss 0 instr_id: 2507
found a miss for CPU: 0 packet->address: 15348284 cycle: 10650 receiver_checks_for_a_miss 0 instr_id: 2511
found a miss for CPU: 0 packet->address: 15348285 cycle: 10666 receiver_checks_for_a_miss 0 instr_id: 2515
found a miss for CPU: 0 packet->address: 15348286 cycle: 10682 receiver_checks_for_a_miss 0 instr_id: 2519
found a miss for CPU: 0 packet->address: 15348287 cycle: 10698 receiver_checks_for_a_miss 0 instr_id: 2523
found a miss for CPU: 0 packet->address: 15348352 cycle: 10817 receiver_checks_for_a_miss 0 instr_id: 2527
found a miss for CPU: 0 packet->address: 15348353 cycle: 10826 receiver_checks_for_a_miss 0 instr_id: 2531
found a miss for CPU: 0 packet->address: 15348354 cycle: 10834 receiver_checks_for_a_miss 0 instr_id: 2535
found a miss for CPU: 0 packet->address: 15348355 cycle: 10840 receiver_checks_for_a_miss 0 instr_id: 2539
found a miss for CPU: 0 packet->address: 15348356 cycle: 10842 receiver_checks_for_a_miss 0 instr_id: 2543
found a miss for CPU: 0 packet->address: 15348357 cycle: 10844 receiver_checks_for_a_miss 0 instr_id: 2547
found a miss for CPU: 0 packet->address: 15348358 cycle: 10846 receiver_checks_for_a_miss 0 instr_id: 2551
found a miss for CPU: 0 packet->address: 15348359 cycle: 10848 receiver_checks_for_a_miss 0 instr_id: 2555
found a miss for CPU: 0 packet->address: 15348360 cycle: 10850 receiver_checks_for_a_miss 0 instr_id: 2559
found a miss for CPU: 0 packet->address: 15348361 cycle: 10858 receiver_checks_for_a_miss 0 instr_id: 2563
found a miss for CPU: 0 packet->address: 15348362 cycle: 10874 receiver_checks_for_a_miss 0 instr_id: 2567
found a miss for CPU: 0 packet->address: 15348363 cycle: 10890 receiver_checks_for_a_miss 0 instr_id: 2571
found a miss for CPU: 0 packet->address: 15348364 cycle: 10906 receiver_checks_for_a_miss 0 instr_id: 2575
found a miss for CPU: 0 packet->address: 15348365 cycle: 10922 receiver_checks_for_a_miss 0 instr_id: 2579
found a miss for CPU: 0 packet->address: 15348366 cycle: 10938 receiver_checks_for_a_miss 0 instr_id: 2583
found a miss for CPU: 0 packet->address: 15348367 cycle: 10954 receiver_checks_for_a_miss 0 instr_id: 2587
found a miss for CPU: 0 packet->address: 15348368 cycle: 10970 receiver_checks_for_a_miss 0 instr_id: 2591
found a miss for CPU: 0 packet->address: 15348369 cycle: 10986 receiver_checks_for_a_miss 0 instr_id: 2595
found a miss for CPU: 0 packet->address: 15348370 cycle: 11002 receiver_checks_for_a_miss 0 instr_id: 2599
found a miss for CPU: 0 packet->address: 15348371 cycle: 11018 receiver_checks_for_a_miss 0 instr_id: 2603
found a miss for CPU: 0 packet->address: 15348372 cycle: 11034 receiver_checks_for_a_miss 0 instr_id: 2607
found a miss for CPU: 0 packet->address: 15348373 cycle: 11050 receiver_checks_for_a_miss 0 instr_id: 2611
found a miss for CPU: 0 packet->address: 15348374 cycle: 11066 receiver_checks_for_a_miss 0 instr_id: 2615
found a miss for CPU: 0 packet->address: 15348375 cycle: 11082 receiver_checks_for_a_miss 0 instr_id: 2619
found a miss for CPU: 0 packet->address: 15348376 cycle: 11098 receiver_checks_for_a_miss 0 instr_id: 2623
found a miss for CPU: 0 packet->address: 15348377 cycle: 11114 receiver_checks_for_a_miss 0 instr_id: 2627
found a miss for CPU: 0 packet->address: 15348378 cycle: 11130 receiver_checks_for_a_miss 0 instr_id: 2631
found a miss for CPU: 0 packet->address: 15348379 cycle: 11146 receiver_checks_for_a_miss 0 instr_id: 2635
found a miss for CPU: 0 packet->address: 15348380 cycle: 11162 receiver_checks_for_a_miss 0 instr_id: 2639
found a miss for CPU: 0 packet->address: 15348381 cycle: 11178 receiver_checks_for_a_miss 0 instr_id: 2643
found a miss for CPU: 0 packet->address: 15348382 cycle: 11194 receiver_checks_for_a_miss 0 instr_id: 2647
found a miss for CPU: 0 packet->address: 15348383 cycle: 11210 receiver_checks_for_a_miss 0 instr_id: 2651
found a miss for CPU: 0 packet->address: 15348384 cycle: 11226 receiver_checks_for_a_miss 0 instr_id: 2655
found a miss for CPU: 0 packet->address: 15348385 cycle: 11242 receiver_checks_for_a_miss 0 instr_id: 2659
found a miss for CPU: 0 packet->address: 15348386 cycle: 11258 receiver_checks_for_a_miss 0 instr_id: 2663
found a miss for CPU: 0 packet->address: 15348387 cycle: 11274 receiver_checks_for_a_miss 0 instr_id: 2667
found a miss for CPU: 0 packet->address: 15348388 cycle: 11290 receiver_checks_for_a_miss 0 instr_id: 2671
found a miss for CPU: 0 packet->address: 15348389 cycle: 11306 receiver_checks_for_a_miss 0 instr_id: 2675
found a miss for CPU: 0 packet->address: 15348390 cycle: 11322 receiver_checks_for_a_miss 0 instr_id: 2679
found a miss for CPU: 0 packet->address: 15348391 cycle: 11338 receiver_checks_for_a_miss 0 instr_id: 2683
found a miss for CPU: 0 packet->address: 15348392 cycle: 11354 receiver_checks_for_a_miss 0 instr_id: 2687
found a miss for CPU: 0 packet->address: 15348393 cycle: 11370 receiver_checks_for_a_miss 0 instr_id: 2691
found a miss for CPU: 0 packet->address: 15348394 cycle: 11386 receiver_checks_for_a_miss 0 instr_id: 2695
found a miss for CPU: 0 packet->address: 15348395 cycle: 11402 receiver_checks_for_a_miss 0 instr_id: 2699
found a miss for CPU: 0 packet->address: 15348396 cycle: 11418 receiver_checks_for_a_miss 0 instr_id: 2703
found a miss for CPU: 0 packet->address: 15348397 cycle: 11434 receiver_checks_for_a_miss 0 instr_id: 2707
found a miss for CPU: 0 packet->address: 15348398 cycle: 11450 receiver_checks_for_a_miss 0 instr_id: 2711
found a miss for CPU: 0 packet->address: 15348399 cycle: 11466 receiver_checks_for_a_miss 0 instr_id: 2715
found a miss for CPU: 0 packet->address: 15348400 cycle: 11482 receiver_checks_for_a_miss 0 instr_id: 2719
found a miss for CPU: 0 packet->address: 15348401 cycle: 11498 receiver_checks_for_a_miss 0 instr_id: 2723
found a miss for CPU: 0 packet->address: 15348402 cycle: 11514 receiver_checks_for_a_miss 0 instr_id: 2727
found a miss for CPU: 0 packet->address: 15348403 cycle: 11530 receiver_checks_for_a_miss 0 instr_id: 2731
found a miss for CPU: 0 packet->address: 15348404 cycle: 11546 receiver_checks_for_a_miss 0 instr_id: 2735
found a miss for CPU: 0 packet->address: 15348405 cycle: 11562 receiver_checks_for_a_miss 0 instr_id: 2739
found a miss for CPU: 0 packet->address: 15348406 cycle: 11578 receiver_checks_for_a_miss 0 instr_id: 2743
found a miss for CPU: 0 packet->address: 15348407 cycle: 11594 receiver_checks_for_a_miss 0 instr_id: 2747
found a miss for CPU: 0 packet->address: 15348408 cycle: 11610 receiver_checks_for_a_miss 0 instr_id: 2751
found a miss for CPU: 0 packet->address: 15348409 cycle: 11626 receiver_checks_for_a_miss 0 instr_id: 2755
found a miss for CPU: 0 packet->address: 15348410 cycle: 11642 receiver_checks_for_a_miss 0 instr_id: 2759
found a miss for CPU: 0 packet->address: 15348411 cycle: 11658 receiver_checks_for_a_miss 0 instr_id: 2763
found a miss for CPU: 0 packet->address: 15348412 cycle: 11674 receiver_checks_for_a_miss 0 instr_id: 2767
found a miss for CPU: 0 packet->address: 15348413 cycle: 11690 receiver_checks_for_a_miss 0 instr_id: 2771
found a miss for CPU: 0 packet->address: 15348414 cycle: 11706 receiver_checks_for_a_miss 0 instr_id: 2775
found a miss for CPU: 0 packet->address: 15348415 cycle: 11722 receiver_checks_for_a_miss 0 instr_id: 2779
found a miss for CPU: 0 packet->address: 15348480 cycle: 11841 receiver_checks_for_a_miss 0 instr_id: 2783
found a miss for CPU: 0 packet->address: 15348481 cycle: 11850 receiver_checks_for_a_miss 0 instr_id: 2787
found a miss for CPU: 0 packet->address: 15348482 cycle: 11858 receiver_checks_for_a_miss 0 instr_id: 2791
found a miss for CPU: 0 packet->address: 15348483 cycle: 11864 receiver_checks_for_a_miss 0 instr_id: 2795
found a miss for CPU: 0 packet->address: 15348484 cycle: 11866 receiver_checks_for_a_miss 0 instr_id: 2799
found a miss for CPU: 0 packet->address: 15348485 cycle: 11868 receiver_checks_for_a_miss 0 instr_id: 2803
found a miss for CPU: 0 packet->address: 15348486 cycle: 11870 receiver_checks_for_a_miss 0 instr_id: 2807
found a miss for CPU: 0 packet->address: 15348487 cycle: 11872 receiver_checks_for_a_miss 0 instr_id: 2811
found a miss for CPU: 0 packet->address: 15348488 cycle: 11874 receiver_checks_for_a_miss 0 instr_id: 2815
found a miss for CPU: 0 packet->address: 15348489 cycle: 11882 receiver_checks_for_a_miss 0 instr_id: 2819
found a miss for CPU: 0 packet->address: 15348490 cycle: 11898 receiver_checks_for_a_miss 0 instr_id: 2823
found a miss for CPU: 0 packet->address: 15348491 cycle: 11914 receiver_checks_for_a_miss 0 instr_id: 2827
found a miss for CPU: 0 packet->address: 15348492 cycle: 11930 receiver_checks_for_a_miss 0 instr_id: 2831
found a miss for CPU: 0 packet->address: 15348493 cycle: 11946 receiver_checks_for_a_miss 0 instr_id: 2835
found a miss for CPU: 0 packet->address: 15348494 cycle: 11962 receiver_checks_for_a_miss 0 instr_id: 2839
found a miss for CPU: 0 packet->address: 15348495 cycle: 11978 receiver_checks_for_a_miss 0 instr_id: 2843
found a miss for CPU: 0 packet->address: 15348496 cycle: 11994 receiver_checks_for_a_miss 0 instr_id: 2847
found a miss for CPU: 0 packet->address: 15348497 cycle: 12010 receiver_checks_for_a_miss 0 instr_id: 2851
found a miss for CPU: 0 packet->address: 15348498 cycle: 12026 receiver_checks_for_a_miss 0 instr_id: 2855
found a miss for CPU: 0 packet->address: 15348499 cycle: 12042 receiver_checks_for_a_miss 0 instr_id: 2859
found a miss for CPU: 0 packet->address: 15348500 cycle: 12058 receiver_checks_for_a_miss 0 instr_id: 2863
found a miss for CPU: 0 packet->address: 15348501 cycle: 12074 receiver_checks_for_a_miss 0 instr_id: 2867
found a miss for CPU: 0 packet->address: 15348502 cycle: 12090 receiver_checks_for_a_miss 0 instr_id: 2871
found a miss for CPU: 0 packet->address: 15348503 cycle: 12106 receiver_checks_for_a_miss 0 instr_id: 2875
found a miss for CPU: 0 packet->address: 15348504 cycle: 12154 receiver_checks_for_a_miss 0 instr_id: 2879
found a miss for CPU: 0 packet->address: 15348505 cycle: 12162 receiver_checks_for_a_miss 0 instr_id: 2883
found a miss for CPU: 0 packet->address: 15348506 cycle: 12168 receiver_checks_for_a_miss 0 instr_id: 2887
found a miss for CPU: 0 packet->address: 15348507 cycle: 12170 receiver_checks_for_a_miss 0 instr_id: 2891
found a miss for CPU: 0 packet->address: 15348508 cycle: 12186 receiver_checks_for_a_miss 0 instr_id: 2895
found a miss for CPU: 0 packet->address: 15348509 cycle: 12202 receiver_checks_for_a_miss 0 instr_id: 2899
found a miss for CPU: 0 packet->address: 15348510 cycle: 12218 receiver_checks_for_a_miss 0 instr_id: 2903
found a miss for CPU: 0 packet->address: 15348511 cycle: 12234 receiver_checks_for_a_miss 0 instr_id: 2907
found a miss for CPU: 0 packet->address: 15348512 cycle: 12250 receiver_checks_for_a_miss 0 instr_id: 2911
found a miss for CPU: 0 packet->address: 15348513 cycle: 12266 receiver_checks_for_a_miss 0 instr_id: 2915
found a miss for CPU: 0 packet->address: 15348514 cycle: 12282 receiver_checks_for_a_miss 0 instr_id: 2919
found a miss for CPU: 0 packet->address: 15348515 cycle: 12298 receiver_checks_for_a_miss 0 instr_id: 2923
found a miss for CPU: 0 packet->address: 15348516 cycle: 12314 receiver_checks_for_a_miss 0 instr_id: 2927
found a miss for CPU: 0 packet->address: 15348517 cycle: 12330 receiver_checks_for_a_miss 0 instr_id: 2931
found a miss for CPU: 0 packet->address: 15348518 cycle: 12346 receiver_checks_for_a_miss 0 instr_id: 2935
found a miss for CPU: 0 packet->address: 15348519 cycle: 12362 receiver_checks_for_a_miss 0 instr_id: 2939
found a miss for CPU: 0 packet->address: 15348520 cycle: 12378 receiver_checks_for_a_miss 0 instr_id: 2943
found a miss for CPU: 0 packet->address: 15348521 cycle: 12394 receiver_checks_for_a_miss 0 instr_id: 2947
found a miss for CPU: 0 packet->address: 15348522 cycle: 12410 receiver_checks_for_a_miss 0 instr_id: 2951
found a miss for CPU: 0 packet->address: 15348523 cycle: 12426 receiver_checks_for_a_miss 0 instr_id: 2955
found a miss for CPU: 0 packet->address: 15348524 cycle: 12442 receiver_checks_for_a_miss 0 instr_id: 2959
[...]
found a miss for CPU: 0 packet->address: 30361595 cycle: 522710 receiver_checks_for_a_miss 0 instr_id: 130507
found a miss for CPU: 0 packet->address: 30361596 cycle: 522726 receiver_checks_for_a_miss 0 instr_id: 130511
found a miss for CPU: 0 packet->address: 30361597 cycle: 522742 receiver_checks_for_a_miss 0 instr_id: 130515
found a miss for CPU: 0 packet->address: 30361598 cycle: 522758 receiver_checks_for_a_miss 0 instr_id: 130519
found a miss for CPU: 0 packet->address: 30361599 cycle: 522774 receiver_checks_for_a_miss 0 instr_id: 130523
found a miss for CPU: 0 packet->address: 30361664 cycle: 522893 receiver_checks_for_a_miss 0 instr_id: 130527
found a miss for CPU: 0 packet->address: 30361665 cycle: 522902 receiver_checks_for_a_miss 0 instr_id: 130531
found a miss for CPU: 0 packet->address: 30361666 cycle: 522910 receiver_checks_for_a_miss 0 instr_id: 130535
found a miss for CPU: 0 packet->address: 30361667 cycle: 522916 receiver_checks_for_a_miss 0 instr_id: 130539
found a miss for CPU: 0 packet->address: 30361668 cycle: 522918 receiver_checks_for_a_miss 0 instr_id: 130543
found a miss for CPU: 0 packet->address: 30361669 cycle: 522920 receiver_checks_for_a_miss 0 instr_id: 130547
found a miss for CPU: 0 packet->address: 30361670 cycle: 522922 receiver_checks_for_a_miss 0 instr_id: 130551
found a miss for CPU: 0 packet->address: 30361671 cycle: 522924 receiver_checks_for_a_miss 0 instr_id: 130555
found a miss for CPU: 0 packet->address: 30361672 cycle: 522926 receiver_checks_for_a_miss 0 instr_id: 130559
found a miss for CPU: 0 packet->address: 30361673 cycle: 522934 receiver_checks_for_a_miss 0 instr_id: 130563
found a miss for CPU: 0 packet->address: 30361674 cycle: 522950 receiver_checks_for_a_miss 0 instr_id: 130567
found a miss for CPU: 0 packet->address: 30361675 cycle: 522966 receiver_checks_for_a_miss 0 instr_id: 130571
found a miss for CPU: 0 packet->address: 30361676 cycle: 522982 receiver_checks_for_a_miss 0 instr_id: 130575
found a miss for CPU: 0 packet->address: 30361677 cycle: 522998 receiver_checks_for_a_miss 0 instr_id: 130579
found a miss for CPU: 0 packet->address: 30361678 cycle: 523014 receiver_checks_for_a_miss 0 instr_id: 130583
found a miss for CPU: 0 packet->address: 30361679 cycle: 523030 receiver_checks_for_a_miss 0 instr_id: 130587
found a miss for CPU: 0 packet->address: 30361680 cycle: 523046 receiver_checks_for_a_miss 0 instr_id: 130591
found a miss for CPU: 0 packet->address: 30361681 cycle: 523062 receiver_checks_for_a_miss 0 instr_id: 130595
found a miss for CPU: 0 packet->address: 30361682 cycle: 523078 receiver_checks_for_a_miss 0 instr_id: 130599
found a miss for CPU: 0 packet->address: 30361683 cycle: 523094 receiver_checks_for_a_miss 0 instr_id: 130603
found a miss for CPU: 0 packet->address: 30361684 cycle: 523110 receiver_checks_for_a_miss 0 instr_id: 130607
found a miss for CPU: 0 packet->address: 30361685 cycle: 523126 receiver_checks_for_a_miss 0 instr_id: 130611
found a miss for CPU: 0 packet->address: 30361686 cycle: 523142 receiver_checks_for_a_miss 0 instr_id: 130615
found a miss for CPU: 0 packet->address: 30361687 cycle: 523158 receiver_checks_for_a_miss 0 instr_id: 130619
found a miss for CPU: 0 packet->address: 30361688 cycle: 523206 receiver_checks_for_a_miss 0 instr_id: 130623
found a miss for CPU: 0 packet->address: 30361689 cycle: 523214 receiver_checks_for_a_miss 0 instr_id: 130627
found a miss for CPU: 0 packet->address: 30361690 cycle: 523220 receiver_checks_for_a_miss 0 instr_id: 130631
found a miss for CPU: 0 packet->address: 30361691 cycle: 523222 receiver_checks_for_a_miss 0 instr_id: 130635
found a miss for CPU: 0 packet->address: 30361692 cycle: 523238 receiver_checks_for_a_miss 0 instr_id: 130639
found a miss for CPU: 0 packet->address: 30361693 cycle: 523254 receiver_checks_for_a_miss 0 instr_id: 130643
found a miss for CPU: 0 packet->address: 30361694 cycle: 523270 receiver_checks_for_a_miss 0 instr_id: 130647
found a miss for CPU: 0 packet->address: 30361695 cycle: 523286 receiver_checks_for_a_miss 0 instr_id: 130651
found a miss for CPU: 0 packet->address: 30361696 cycle: 523302 receiver_checks_for_a_miss 0 instr_id: 130655
found a miss for CPU: 0 packet->address: 30361697 cycle: 523318 receiver_checks_for_a_miss 0 instr_id: 130659
found a miss for CPU: 0 packet->address: 30361698 cycle: 523334 receiver_checks_for_a_miss 0 instr_id: 130663
found a miss for CPU: 0 packet->address: 30361699 cycle: 523350 receiver_checks_for_a_miss 0 instr_id: 130667
found a miss for CPU: 0 packet->address: 30361700 cycle: 523366 receiver_checks_for_a_miss 0 instr_id: 130671
found a miss for CPU: 0 packet->address: 30361701 cycle: 523382 receiver_checks_for_a_miss 0 instr_id: 130675
found a miss for CPU: 0 packet->address: 30361702 cycle: 523398 receiver_checks_for_a_miss 0 instr_id: 130679
found a miss for CPU: 0 packet->address: 30361703 cycle: 523414 receiver_checks_for_a_miss 0 instr_id: 130683
found a miss for CPU: 0 packet->address: 30361704 cycle: 523430 receiver_checks_for_a_miss 0 instr_id: 130687
found a miss for CPU: 0 packet->address: 30361705 cycle: 523446 receiver_checks_for_a_miss 0 instr_id: 130691
found a miss for CPU: 0 packet->address: 30361706 cycle: 523462 receiver_checks_for_a_miss 0 instr_id: 130695
found a miss for CPU: 0 packet->address: 30361707 cycle: 523478 receiver_checks_for_a_miss 0 instr_id: 130699
found a miss for CPU: 0 packet->address: 30361708 cycle: 523494 receiver_checks_for_a_miss 0 instr_id: 130703
found a miss for CPU: 0 packet->address: 30361709 cycle: 523510 receiver_checks_for_a_miss 0 instr_id: 130707
found a miss for CPU: 0 packet->address: 30361710 cycle: 523526 receiver_checks_for_a_miss 0 instr_id: 130711
found a miss for CPU: 0 packet->address: 30361711 cycle: 523542 receiver_checks_for_a_miss 0 instr_id: 130715
found a miss for CPU: 0 packet->address: 30361712 cycle: 523558 receiver_checks_for_a_miss 0 instr_id: 130719
found a miss for CPU: 0 packet->address: 30361713 cycle: 523574 receiver_checks_for_a_miss 0 instr_id: 130723
found a miss for CPU: 0 packet->address: 30361714 cycle: 523590 receiver_checks_for_a_miss 0 instr_id: 130727
found a miss for CPU: 0 packet->address: 30361715 cycle: 523606 receiver_checks_for_a_miss 0 instr_id: 130731
found a miss for CPU: 0 packet->address: 30361716 cycle: 523622 receiver_checks_for_a_miss 0 instr_id: 130735
found a miss for CPU: 0 packet->address: 30361717 cycle: 523638 receiver_checks_for_a_miss 0 instr_id: 130739
found a miss for CPU: 0 packet->address: 30361718 cycle: 523654 receiver_checks_for_a_miss 0 instr_id: 130743
found a miss for CPU: 0 packet->address: 30361719 cycle: 523670 receiver_checks_for_a_miss 0 instr_id: 130747
found a miss for CPU: 0 packet->address: 30361720 cycle: 523686 receiver_checks_for_a_miss 0 instr_id: 130751
found a miss for CPU: 0 packet->address: 30361721 cycle: 523702 receiver_checks_for_a_miss 0 instr_id: 130755
found a miss for CPU: 0 packet->address: 30361722 cycle: 523718 receiver_checks_for_a_miss 0 instr_id: 130759
found a miss for CPU: 0 packet->address: 30361723 cycle: 523734 receiver_checks_for_a_miss 0 instr_id: 130763
found a miss for CPU: 0 packet->address: 30361724 cycle: 523750 receiver_checks_for_a_miss 0 instr_id: 130767
found a miss for CPU: 0 packet->address: 30361725 cycle: 523766 receiver_checks_for_a_miss 0 instr_id: 130771
found a miss for CPU: 0 packet->address: 30361726 cycle: 523782 receiver_checks_for_a_miss 0 instr_id: 130775
found a miss for CPU: 0 packet->address: 30361727 cycle: 523798 receiver_checks_for_a_miss 0 instr_id: 130779
found a miss for CPU: 0 packet->address: 30361792 cycle: 523917 receiver_checks_for_a_miss 0 instr_id: 130783
found a miss for CPU: 0 packet->address: 30361793 cycle: 523926 receiver_checks_for_a_miss 0 instr_id: 130787
found a miss for CPU: 0 packet->address: 30361794 cycle: 523934 receiver_checks_for_a_miss 0 instr_id: 130791
found a miss for CPU: 0 packet->address: 30361795 cycle: 523940 receiver_checks_for_a_miss 0 instr_id: 130795
found a miss for CPU: 0 packet->address: 30361796 cycle: 523942 receiver_checks_for_a_miss 0 instr_id: 130799
found a miss for CPU: 0 packet->address: 30361797 cycle: 523944 receiver_checks_for_a_miss 0 instr_id: 130803
found a miss for CPU: 0 packet->address: 30361798 cycle: 523946 receiver_checks_for_a_miss 0 instr_id: 130807
found a miss for CPU: 0 packet->address: 30361799 cycle: 523948 receiver_checks_for_a_miss 0 instr_id: 130811
found a miss for CPU: 0 packet->address: 30361800 cycle: 523950 receiver_checks_for_a_miss 0 instr_id: 130815
found a miss for CPU: 0 packet->address: 30361801 cycle: 523958 receiver_checks_for_a_miss 0 instr_id: 130819
found a miss for CPU: 0 packet->address: 30361802 cycle: 523974 receiver_checks_for_a_miss 0 instr_id: 130823
found a miss for CPU: 0 packet->address: 30361803 cycle: 523990 receiver_checks_for_a_miss 0 instr_id: 130827
found a miss for CPU: 0 packet->address: 30361804 cycle: 524006 receiver_checks_for_a_miss 0 instr_id: 130831
found a miss for CPU: 0 packet->address: 30361805 cycle: 524022 receiver_checks_for_a_miss 0 instr_id: 130835
found a miss for CPU: 0 packet->address: 30361806 cycle: 524038 receiver_checks_for_a_miss 0 instr_id: 130839
found a miss for CPU: 0 packet->address: 30361807 cycle: 524054 receiver_checks_for_a_miss 0 instr_id: 130843
found a miss for CPU: 0 packet->address: 30361808 cycle: 524070 receiver_checks_for_a_miss 0 instr_id: 130847
found a miss for CPU: 0 packet->address: 30361809 cycle: 524086 receiver_checks_for_a_miss 0 instr_id: 130851
found a miss for CPU: 0 packet->address: 30361810 cycle: 524102 receiver_checks_for_a_miss 0 instr_id: 130855
found a miss for CPU: 0 packet->address: 30361811 cycle: 524118 receiver_checks_for_a_miss 0 instr_id: 130859
found a miss for CPU: 0 packet->address: 30361812 cycle: 524134 receiver_checks_for_a_miss 0 instr_id: 130863
found a miss for CPU: 0 packet->address: 30361813 cycle: 524150 receiver_checks_for_a_miss 0 instr_id: 130867
found a miss for CPU: 0 packet->address: 30361814 cycle: 524166 receiver_checks_for_a_miss 0 instr_id: 130871
found a miss for CPU: 0 packet->address: 30361815 cycle: 524182 receiver_checks_for_a_miss 0 instr_id: 130875
found a miss for CPU: 0 packet->address: 30361816 cycle: 524198 receiver_checks_for_a_miss 0 instr_id: 130879
found a miss for CPU: 0 packet->address: 30361817 cycle: 524214 receiver_checks_for_a_miss 0 instr_id: 130883
found a miss for CPU: 0 packet->address: 30361818 cycle: 524230 receiver_checks_for_a_miss 0 instr_id: 130887
found a miss for CPU: 0 packet->address: 30361819 cycle: 524246 receiver_checks_for_a_miss 0 instr_id: 130891
found a miss for CPU: 0 packet->address: 30361820 cycle: 524262 receiver_checks_for_a_miss 0 instr_id: 130895
found a miss for CPU: 0 packet->address: 30361821 cycle: 524278 receiver_checks_for_a_miss 0 instr_id: 130899
found a miss for CPU: 0 packet->address: 30361822 cycle: 524294 receiver_checks_for_a_miss 0 instr_id: 130903
found a miss for CPU: 0 packet->address: 30361823 cycle: 524310 receiver_checks_for_a_miss 0 instr_id: 130907
found a miss for CPU: 0 packet->address: 30361824 cycle: 524326 receiver_checks_for_a_miss 0 instr_id: 130911
found a miss for CPU: 0 packet->address: 30361825 cycle: 524342 receiver_checks_for_a_miss 0 instr_id: 130915
found a miss for CPU: 0 packet->address: 30361826 cycle: 524358 receiver_checks_for_a_miss 0 instr_id: 130919
found a miss for CPU: 0 packet->address: 30361827 cycle: 524374 receiver_checks_for_a_miss 0 instr_id: 130923
found a miss for CPU: 0 packet->address: 30361828 cycle: 524390 receiver_checks_for_a_miss 0 instr_id: 130927
found a miss for CPU: 0 packet->address: 30361829 cycle: 524406 receiver_checks_for_a_miss 0 instr_id: 130931
found a miss for CPU: 0 packet->address: 30361830 cycle: 524422 receiver_checks_for_a_miss 0 instr_id: 130935
found a miss for CPU: 0 packet->address: 30361831 cycle: 524438 receiver_checks_for_a_miss 0 instr_id: 130939
found a miss for CPU: 0 packet->address: 30361832 cycle: 524454 receiver_checks_for_a_miss 0 instr_id: 130943
found a miss for CPU: 0 packet->address: 30361833 cycle: 524470 receiver_checks_for_a_miss 0 instr_id: 130947
found a miss for CPU: 0 packet->address: 30361834 cycle: 524486 receiver_checks_for_a_miss 0 instr_id: 130951
found a miss for CPU: 0 packet->address: 30361835 cycle: 524502 receiver_checks_for_a_miss 0 instr_id: 130955
found a miss for CPU: 0 packet->address: 30361836 cycle: 524518 receiver_checks_for_a_miss 0 instr_id: 130959
found a miss for CPU: 0 packet->address: 30361837 cycle: 524534 receiver_checks_for_a_miss 0 instr_id: 130963
found a miss for CPU: 0 packet->address: 30361838 cycle: 524550 receiver_checks_for_a_miss 0 instr_id: 130967
found a miss for CPU: 0 packet->address: 30361839 cycle: 524566 receiver_checks_for_a_miss 0 instr_id: 130971
found a miss for CPU: 0 packet->address: 30361840 cycle: 524582 receiver_checks_for_a_miss 0 instr_id: 130975
found a miss for CPU: 0 packet->address: 30361841 cycle: 524598 receiver_checks_for_a_miss 0 instr_id: 130979
found a miss for CPU: 0 packet->address: 30361842 cycle: 524614 receiver_checks_for_a_miss 0 instr_id: 130983
found a miss for CPU: 0 packet->address: 30361843 cycle: 524630 receiver_checks_for_a_miss 0 instr_id: 130987
found a miss for CPU: 0 packet->address: 30361844 cycle: 524646 receiver_checks_for_a_miss 0 instr_id: 130991
found a miss for CPU: 0 packet->address: 30361845 cycle: 524662 receiver_checks_for_a_miss 0 instr_id: 130995
found a miss for CPU: 0 packet->address: 30361846 cycle: 524678 receiver_checks_for_a_miss 0 instr_id: 130999
found a miss for CPU: 0 packet->address: 30361847 cycle: 524694 receiver_checks_for_a_miss 0 instr_id: 131003
found a miss for CPU: 0 packet->address: 30361848 cycle: 524710 receiver_checks_for_a_miss 0 instr_id: 131007
found a miss for CPU: 0 packet->address: 30361849 cycle: 524726 receiver_checks_for_a_miss 0 instr_id: 131011
found a miss for CPU: 0 packet->address: 30361850 cycle: 524742 receiver_checks_for_a_miss 0 instr_id: 131015
found a miss for CPU: 0 packet->address: 30361851 cycle: 524758 receiver_checks_for_a_miss 0 instr_id: 131019
found a miss for CPU: 0 packet->address: 30361852 cycle: 524774 receiver_checks_for_a_miss 0 instr_id: 131023
found a miss for CPU: 0 packet->address: 30361853 cycle: 524790 receiver_checks_for_a_miss 0 instr_id: 131027
found a miss for CPU: 0 packet->address: 30361854 cycle: 524806 receiver_checks_for_a_miss 0 instr_id: 131031
found a miss for CPU: 0 packet->address: 30361855 cycle: 524822 receiver_checks_for_a_miss 0 instr_id: 131035
found a miss for CPU: 0 packet->address: 14623360 cycle: 524841 receiver_checks_for_a_miss 0 instr_id: 131039
FFFFFFF cpu 0 encountered fence, current core cycle: 524854 instr_unique_id: 131052
found a miss for CPU: 0 packet->address: 14623361 cycle: 524854 receiver_checks_for_a_miss 0 instr_id: 131043
found a miss for CPU: 0 packet->address: 14623362 cycle: 524870 receiver_checks_for_a_miss 0 instr_id: 131047
FFFFFFF cpu 0 Retiring fence, current core cycle: 525245 instr_id: 131052
found a miss for CPU: 0 packet->address: 30361923 cycle: 525265 receiver_checks_for_a_miss 0 instr_id: 131051
FFFFFFF cpu 0 encountered fence, current core cycle: 590801 instr_unique_id: 262098
FFFFFFF cpu 0 Retiring fence, current core cycle: 590837 instr_id: 262098
FFFFFFF cpu 0 encountered fence, current core cycle: 656382 instr_unique_id: 393144
FFFFFFF cpu 0 Retiring fence, current core cycle: 656418 instr_id: 393144
FFFFFFF cpu 0 encountered fence, current core cycle: 721952 instr_unique_id: 524190
FFFFFFF cpu 0 Retiring fence, current core cycle: 721988 instr_id: 524190
FFFFFFF cpu 0 encountered fence, current core cycle: 787522 instr_unique_id: 655236
FFFFFFF cpu 0 Retiring fence, current core cycle: 787558 instr_id: 655236
FFFFFFF cpu 0 encountered fence, current core cycle: 853092 instr_unique_id: 786282
FFFFFFF cpu 0 Retiring fence, current core cycle: 853128 instr_id: 786282
FFFFFFF cpu 0 encountered fence, current core cycle: 918662 instr_unique_id: 917328
FFFFFFF cpu 0 Retiring fence, current core cycle: 918698 instr_id: 917328
FFFFFFF cpu 0 encountered fence, current core cycle: 984232 instr_unique_id: 1048374
FFFFFFF cpu 0 Retiring fence, current core cycle: 984268 instr_id: 1048374
*** Reached end of trace for Core: 0 fptr: 0x564b57589a80 Repeating trace: /home/yashikav/Desktop/Mirage_project/ChampSim_for_mirage_forward_fill_early_with_error_correction_with_LLC_occupancy_mediator/fa_lru_analysis/champsim.trace_fa_lru_cache.gz unique instr ID: 1048380 num_retired:  1048377
Finished CPU 0 instructions: 1048380 cycles: 984289 cumulative IPC: 1.06511 (Simulation time: 0 hr 0 min 2 sec) 

CPU 0 Branch Prediction Accuracy: 99.9943% MPKI: 0.0143078

ChampSim completed all CPUs

Region of Interest Statistics

CPU 0 cumulative IPC: 1.06511 instructions: 1048380 cycles: 984289
L1D TOTAL     ACCESS:     262106  HIT:          9  MISS:     262097
L1D LOAD      ACCESS:     262089  HIT:          1  MISS:     262088
L1D RFO       ACCESS:         17  HIT:          8  MISS:          9
L1D PREFETCH  ACCESS:          0  HIT:          0  MISS:          0
L1D WRITEBACK ACCESS:          0  HIT:          0  MISS:          0
L1D PREFETCH  REQUESTED:          0  ISSUED:          0  USEFUL:          0  USELESS:          0
L1I TOTAL     ACCESS:     141051  HIT:     140992  MISS:         59
L1I LOAD      ACCESS:     141051  HIT:     140992  MISS:         59
L1I RFO       ACCESS:          0  HIT:          0  MISS:          0
L1I PREFETCH  ACCESS:          0  HIT:          0  MISS:          0
L1I WRITEBACK ACCESS:          0  HIT:          0  MISS:          0
L1I PREFETCH  REQUESTED:          0  ISSUED:          0  USEFUL:          0  USELESS:          0
L2C TOTAL     ACCESS:     262171  HIT:         15  MISS:     262156
L2C LOAD      ACCESS:     262147  HIT:          0  MISS:     262147
L2C RFO       ACCESS:          9  HIT:          0  MISS:          9
L2C PREFETCH  ACCESS:          0  HIT:          0  MISS:          0
L2C WRITEBACK ACCESS:         15  HIT:         15  MISS:          0
L2C PREFETCH  REQUESTED:          0  ISSUED:          0  USEFUL:          0  USELESS:          0
LLC TOTAL     ACCESS:     262171  HIT:     229406  MISS:      32765
LLC LOAD      ACCESS:     262147  HIT:     229384  MISS:      32763
LLC RFO       ACCESS:          9  HIT:          7  MISS:          2
LLC PREFETCH  ACCESS:          0  HIT:          0  MISS:          0
LLC WRITEBACK ACCESS:         15  HIT:         15  MISS:          0
LLC PREFETCH  REQUESTED:          0  ISSUED:          0  USEFUL:          0  USELESS:          0
data_LLC TOTAL     ACCESS:     262171  HIT:     229406  MISS:      32765
data_LLC LOAD      ACCESS:     262147  HIT:     229384  MISS:      32763
data_LLC RFO       ACCESS:          9  HIT:          7  MISS:          2
data_LLC PREFETCH  ACCESS:          0  HIT:          0  MISS:          0
data_LLC WRITEBACK ACCESS:         15  HIT:         15  MISS:          0
data_LLC PREFETCH  REQUESTED:          0  ISSUED:          0  USEFUL:          0  USELESS:          0
Major fault: 0 Minor fault: 516
Tag LLC Valid blocks: 32765 Dirty blocks: 2 Invalid blocks: 24579
Data LLC Valid blocks: 32765 Dirty blocks: 2 Invalid blocks: 3
Spills: 0
sender_evicted_own_active_block: 0
sender_evicted_own_inactive_block: 0
sender_evicted_receiver_inactive_block: 0
sender_evicted_receiver_unrecognizable_active_block: 0
sender_evicted_receiver_recognizable_active_block: 0
sender_filled_up_empty_block: 0
correctly_transmitted_zero: 0

DRAM Statistics
 CHANNEL 0
 RQ ROW_BUFFER_HIT:      30653  ROW_BUFFER_MISS:       2112
 DBUS_CONGESTED:      32752
 WQ ROW_BUFFER_HIT:          0  ROW_BUFFER_MISS:          0  FULL:          0

491253 32752
 AVG_CONGESTED_CYCLE: 14

CPU 0 Branch Prediction Accuracy: 99.9943% MPKI: 0.0143078
